1

   Abaqus 2022                                  Date 14-Apr-2023   Time 16:57:09
   For use by UNIVERSITY OF MICHIGAN under license from Dassault Systemes or its subsidiary.



                         The Abaqus Software is a product of:

                           Dassault Systemes SIMULIA Corp.
                           1301 Atwood Avenue, Suite 101W
                              Johnston, RI 02919, USA
 


                   The Abaqus Software is available only under license
                   from Dassault Systemes or its subsidiary and may be
                   used or reproduced only in accordance with the terms
                   of such license.
 
                          On machine CAEN-CORNERP05 
                          you are authorized to run
                          Abaqus/Standard until 31-Jul-2023

                          Your site id is: 200000000004058 


 
                    For assistance or any other information you may
                    obtain contact information for your local office
                    from the world wide web at:

                      http://www.3ds.com/products/simulia/locations/

 
                * * * * * * * * * * * * * * * * * * * * * * * * * * * * * * 
                *                                                         * 
                *                   *****************                     * 
                *                   *  N O T I C E  *                     * 
                *                   *****************                     * 
                *                                                         * 
                *                                                         * 
                *                       Abaqus 2022                       * 
                *                                                         * 
                *          BUILD ID: 2021_09_15-13.57.30 176069           * 
                *                                                         * 
                *                                                         * 
                *  Please make sure you are using                         * 
                *  release Abaqus 2022 manuals                            * 
                *  plus the notes accompanying this release.              * 
                *                                                         * 
                *                                                         * 
                *                                                         * 
                *                                                         * 
                *                                                         * 
                *   This program may not be used for commercial purposes  * 
                *           without payment of a commercial fee.          * 
                *                                                         * 
                * * * * * * * * * * * * * * * * * * * * * * * * * * * * * * 


 



     PROCESSING PART, INSTANCE, AND ASSEMBLY INFORMATION
   *******************************************************


     END PROCESSING PART, INSTANCE, AND ASSEMBLY INFORMATION
   ***********************************************************

  *initialconditions, type=STRESS
  *initialconditions, type=STRESS
  *initialconditions, type=STRESS
  *initialconditions, type=STRESS
  *initialconditions, type=STRESS
  *initialconditions, type=STRESS
  *initialconditions, type=STRESS
  *initialconditions, type=STRESS
  *initialconditions, type=STRESS
  *initialconditions, type=STRESS
  *initialconditions, type=STRESS



     OPTIONS BEING PROCESSED
   ***************************


  *Heading
  *Node
  *Element, type=C3D8R
  *Nset, nset=ASSEMBLY_PART-1-1_SET-1
  *Nset, nset=ASSEMBLY_PART-1-1_THINLAYERVERT
  *Elset, elset=ASSEMBLY_PART-1-1_L1
  *Elset, elset=ASSEMBLY_PART-1-1_L10
  *Elset, elset=ASSEMBLY_PART-1-1_L11_THICK
  *Elset, elset=ASSEMBLY_PART-1-1_L2
  *Elset, elset=ASSEMBLY_PART-1-1_L3
  *Elset, elset=ASSEMBLY_PART-1-1_L4
  *Elset, elset=ASSEMBLY_PART-1-1_L5
  *Elset, elset=ASSEMBLY_PART-1-1_L6
  *Elset, elset=ASSEMBLY_PART-1-1_L7
  *Elset, elset=ASSEMBLY_PART-1-1_L8
  *Elset, elset=ASSEMBLY_PART-1-1_L9
  *Elset, elset=ASSEMBLY_PART-1-1_SET-1
  *Elset, elset=ASSEMBLY_PART-1-1_THINLAYERVERT
  *Nset, nset=ASSEMBLY_CUT
  *Elset, elset=ASSEMBLY_CUT
  *material, name=GENERIC-METAL
  *elastic
  *initialconditions, type=STRESS
  *initialconditions, type=STRESS
  *initialconditions, type=STRESS
  *initialconditions, type=STRESS
  *initialconditions, type=STRESS
  *initialconditions, type=STRESS
  *initialconditions, type=STRESS
  *initialconditions, type=STRESS
  *initialconditions, type=STRESS
  *initialconditions, type=STRESS
  *initialconditions, type=STRESS
  *solidsection, elset=ASSEMBLY_PART-1-1_SET-1, material=GENERIC-METAL
  *solidsection, elset=ASSEMBLY_PART-1-1_SET-1, material=GENERIC-METAL
  *initialconditions, type=STRESS
  *initialconditions, type=STRESS
  *initialconditions, type=STRESS
  *initialconditions, type=STRESS
  *initialconditions, type=STRESS
  *initialconditions, type=STRESS
  *initialconditions, type=STRESS
  *initialconditions, type=STRESS
  *initialconditions, type=STRESS
  *initialconditions, type=STRESS
  *initialconditions, type=STRESS
  *output, field, variable=PRESELECT
  *output, history, variable=PRESELECT
  *output, field, variable=PRESELECT
  *output, history, variable=PRESELECT
  *output, field, variable=PRESELECT
  *output, history, variable=PRESELECT
  *initialconditions, type=STRESS
  *initialconditions, type=STRESS
  *initialconditions, type=STRESS
  *initialconditions, type=STRESS
  *initialconditions, type=STRESS
  *initialconditions, type=STRESS
  *initialconditions, type=STRESS
  *initialconditions, type=STRESS
  *initialconditions, type=STRESS
  *initialconditions, type=STRESS
  *initialconditions, type=STRESS
  *output, field, variable=PRESELECT
  *output, history, variable=PRESELECT
  *output, field, variable=PRESELECT
  *output, history, variable=PRESELECT
  *output, field, variable=PRESELECT
  *output, history, variable=PRESELECT
  *initialconditions, type=STRESS
  *initialconditions, type=STRESS
  *initialconditions, type=STRESS
  *initialconditions, type=STRESS
  *initialconditions, type=STRESS
  *initialconditions, type=STRESS
  *initialconditions, type=STRESS
  *initialconditions, type=STRESS
  *initialconditions, type=STRESS
  *initialconditions, type=STRESS
  *initialconditions, type=STRESS
  *initialconditions, type=STRESS
  *initialconditions, type=STRESS
  *initialconditions, type=STRESS
  *initialconditions, type=STRESS
  *initialconditions, type=STRESS
  *initialconditions, type=STRESS
  *initialconditions, type=STRESS
  *initialconditions, type=STRESS
  *initialconditions, type=STRESS
  *initialconditions, type=STRESS
  *initialconditions, type=STRESS
  *output, field, variable=PRESELECT
  *output, history, variable=PRESELECT
  *output, field, variable=PRESELECT
  *output, history, variable=PRESELECT
  *output, field, variable=PRESELECT
  *output, history, variable=PRESELECT
  
                               E L E M E N T   Q U A L I T Y  C H E C K S        
  
  
 ***NOTES: DISTORTED ISOPARAMETRIC ELEMENTS: ANGLE BETWEEN ISOPARAMETRIC LINES 
           IS LESS THAN 45 DEGREES OR GREATER THAN 135 DEGREES.
  
           TETRAHEDRAL QUALITY MEASURE: VOLUME OF TETRAHEDRON DIVIDED BY THE 
           VOLUME OF EQUILATERAL TETRAHEDRON WITH SAME CIRCUMSPHERE RADIUS; 
           0 FOR DEGENERATE TETRAHEDRON AND 1 FOR EQUILATERIAL TETRAHEDRON. IT 
           IS RECOMMENDED THAT THE TETRAHEDRAL QUALITY MEASURE BE GREATER THAN 
           0.02, THE MIN INTERIOR (DIHEDRAL) ANGLE BE GREATER THAN 10 DEGREES, 
           AND THE MAX INTERIOR (DIHEDRAL) ANGLE BE LESS THAN 160 DEGREES. 
  
           MODIFIED TETRAHEDRAL QUALITY MEASURE: ANGLES BETWEEN THE TWO LINE 
           SEGMENTS ON EACH EDGE; THE EDGES OF MODIFIED TETRAHEDRAL SHOULD BE 
           AS STRAIGHT AS POSSIBLE. IT IS RECOMMENDED THAT THE ANGLE BETWEEN 
           THE TWO LINE SEGMENTS ON EACH EDGE IS BETWEEN 160 AND 180 DEGREES. 
  
           TRIANGULAR QUALITY MEASURE: AREA OF TRIANGLE DIVIDED BY THE AREA OF 
           EQUILATERAL TRIANGLE WITH SAME CIRCUMCIRCLE RADIUS; 0 FOR DEGENERATE 
           TRIANGLE AND 1 FOR EQUILATERAL TRIANGLE. IT IS RECOMMENDED THAT THE
           TRIANGULAR QUALITY MEASURE BE GREATER THAN 0.01, THE MIN INTERIOR 
           ANGLE BE GREATER THAN 10 DEGREES, AND THE MAX INTERIOR ANGLE BE LESS 
           THAN 160 DEGREES. 
  
           NODAL ADJUSTMENTS ARISING FROM CONTACT INTERACTIONS AND/OR TIE 
           CONSTRAINTS CAN CAUSE SEVERE ELEMENT DISTORTION. IT MAY BE NECESSARY 
           TO REMESH IN ORDER TO REDUCE THE AMOUNT OF ADJUSTMENT. 

 ***WARNING: The aspect ratio for 80400 elements exceeds 100 to 1. The elements 
             have been identified in element set WarnElemAspectRatio.
  
 --------------------------------------------------------------------------------
 Elements with large aspect ratio
  
      Element       Adjusted nodes 
 ------------------ -------------- 
     PART-1-1.36681       NO       
     PART-1-1.36682       NO       
     PART-1-1.36683       NO       
     PART-1-1.36684       NO       
     PART-1-1.36685       NO       
     PART-1-1.36686       NO       
     PART-1-1.36687       NO       
     PART-1-1.36688       NO       
     PART-1-1.36689       NO       
     PART-1-1.36690       NO       
     PART-1-1.36691       NO       
     PART-1-1.36692       NO       
     PART-1-1.36693       NO       
     PART-1-1.36694       NO       
     PART-1-1.36695       NO       
     PART-1-1.36696       NO       
     PART-1-1.36697       NO       
     PART-1-1.36698       NO       
     PART-1-1.36699       NO       
     PART-1-1.36700       NO       
     PART-1-1.36701       NO       
     PART-1-1.36702       NO       
     PART-1-1.36703       NO       
     PART-1-1.36704       NO       
     PART-1-1.36705       NO       
     PART-1-1.36706       NO       
     PART-1-1.36707       NO       
     PART-1-1.36708       NO       
     PART-1-1.36709       NO       
     PART-1-1.36710       NO       
     PART-1-1.36711       NO       
     PART-1-1.36712       NO       
     PART-1-1.36713       NO       
     PART-1-1.36714       NO       
     PART-1-1.36715       NO       
     PART-1-1.36716       NO       
     PART-1-1.36717       NO       
     PART-1-1.36718       NO       
     PART-1-1.36719       NO       
     PART-1-1.36720       NO       
     PART-1-1.36721       NO       
     PART-1-1.36722       NO       
     PART-1-1.36723       NO       
     PART-1-1.36724       NO       
     PART-1-1.36725       NO       
     PART-1-1.36726       NO       
     PART-1-1.36727       NO       
     PART-1-1.36728       NO       
     PART-1-1.36729       NO       
     PART-1-1.36730       NO       
     PART-1-1.36731       NO       
     PART-1-1.36732       NO       
     PART-1-1.36733       NO       
     PART-1-1.36734       NO       
     PART-1-1.36735       NO       
     PART-1-1.36736       NO       
     PART-1-1.36737       NO       
     PART-1-1.36738       NO       
     PART-1-1.36739       NO       
     PART-1-1.36740       NO       
     PART-1-1.36741       NO       
     PART-1-1.36742       NO       
     PART-1-1.36743       NO       
     PART-1-1.36744       NO       
     PART-1-1.36745       NO       
     PART-1-1.36746       NO       
     PART-1-1.36747       NO       
     PART-1-1.36748       NO       
     PART-1-1.36749       NO       
     PART-1-1.36750       NO       
     PART-1-1.36751       NO       
     PART-1-1.36752       NO       
     PART-1-1.36753       NO       
     PART-1-1.36754       NO       
     PART-1-1.36755       NO       
     PART-1-1.36756       NO       
     PART-1-1.36757       NO       
     PART-1-1.36758       NO       
     PART-1-1.36759       NO       
     PART-1-1.36760       NO       
     PART-1-1.36761       NO       
     PART-1-1.36762       NO       
     PART-1-1.36763       NO       
     PART-1-1.36764       NO       
     PART-1-1.36765       NO       
     PART-1-1.36766       NO       
     PART-1-1.36767       NO       
     PART-1-1.36768       NO       
     PART-1-1.36769       NO       
     PART-1-1.36770       NO       
     PART-1-1.36771       NO       
     PART-1-1.36772       NO       
     PART-1-1.36773       NO       
     PART-1-1.36774       NO       
     PART-1-1.36775       NO       
     PART-1-1.36776       NO       
     PART-1-1.36777       NO       
     PART-1-1.36778       NO       
     PART-1-1.36779       NO       
     PART-1-1.36780       NO       
     PART-1-1.36781       NO       
     PART-1-1.36782       NO       
     PART-1-1.36783       NO       
     PART-1-1.36784       NO       
     PART-1-1.36785       NO       
     PART-1-1.36786       NO       
     PART-1-1.36787       NO       
     PART-1-1.36788       NO       
     PART-1-1.36789       NO       
     PART-1-1.36790       NO       
     PART-1-1.36791       NO       
     PART-1-1.36792       NO       
     PART-1-1.36793       NO       
     PART-1-1.36794       NO       
     PART-1-1.36795       NO       
     PART-1-1.36796       NO       
     PART-1-1.36797       NO       
     PART-1-1.36798       NO       
     PART-1-1.36799       NO       
     PART-1-1.36800       NO       
     PART-1-1.36801       NO       
     PART-1-1.36802       NO       
     PART-1-1.36803       NO       
     PART-1-1.36804       NO       
     PART-1-1.36805       NO       
     PART-1-1.36806       NO       
     PART-1-1.36807       NO       
     PART-1-1.36808       NO       
     PART-1-1.36809       NO       
     PART-1-1.36810       NO       
     PART-1-1.36811       NO       
     PART-1-1.36812       NO       
     PART-1-1.36813       NO       
     PART-1-1.36814       NO       
     PART-1-1.36815       NO       
     PART-1-1.36816       NO       
     PART-1-1.36817       NO       
     PART-1-1.36818       NO       
     PART-1-1.36819       NO       
     PART-1-1.36820       NO       
     PART-1-1.36821       NO       
     PART-1-1.36822       NO       
     PART-1-1.36823       NO       
     PART-1-1.36824       NO       
     PART-1-1.36825       NO       
     PART-1-1.36826       NO       
     PART-1-1.36827       NO       
     PART-1-1.36828       NO       
     PART-1-1.36829       NO       
     PART-1-1.36830       NO       
     PART-1-1.36831       NO       
     PART-1-1.36832       NO       
     PART-1-1.36833       NO       
     PART-1-1.36834       NO       
     PART-1-1.36835       NO       
     PART-1-1.36836       NO       
     PART-1-1.36837       NO       
     PART-1-1.36838       NO       
     PART-1-1.36839       NO       
     PART-1-1.36840       NO       
     PART-1-1.36841       NO       
     PART-1-1.36842       NO       
     PART-1-1.36843       NO       
     PART-1-1.36844       NO       
     PART-1-1.36845       NO       
     PART-1-1.36846       NO       
     PART-1-1.36847       NO       
     PART-1-1.36848       NO       
     PART-1-1.36849       NO       
     PART-1-1.36850       NO       
     PART-1-1.36851       NO       
     PART-1-1.36852       NO       
     PART-1-1.36853       NO       
     PART-1-1.36854       NO       
     PART-1-1.36855       NO       
     PART-1-1.36856       NO       
     PART-1-1.36857       NO       
     PART-1-1.36858       NO       
     PART-1-1.36859       NO       
     PART-1-1.36860       NO       
     PART-1-1.36861       NO       
     PART-1-1.36862       NO       
     PART-1-1.36863       NO       
     PART-1-1.36864       NO       
     PART-1-1.36865       NO       
     PART-1-1.36866       NO       
     PART-1-1.36867       NO       
     PART-1-1.36868       NO       
     PART-1-1.36869       NO       
     PART-1-1.36870       NO       
     PART-1-1.36871       NO       
     PART-1-1.36872       NO       
     PART-1-1.36873       NO       
     PART-1-1.36874       NO       
     PART-1-1.36875       NO       
     PART-1-1.36876       NO       
     PART-1-1.36877       NO       
     PART-1-1.36878       NO       
     PART-1-1.36879       NO       
     PART-1-1.36880       NO       
     PART-1-1.36881       NO       
     PART-1-1.36882       NO       
     PART-1-1.36883       NO       
     PART-1-1.36884       NO       
     PART-1-1.36885       NO       
     PART-1-1.36886       NO       
     PART-1-1.36887       NO       
     PART-1-1.36888       NO       
     PART-1-1.36889       NO       
     PART-1-1.36890       NO       
     PART-1-1.36891       NO       
     PART-1-1.36892       NO       
     PART-1-1.36893       NO       
     PART-1-1.36894       NO       
     PART-1-1.36895       NO       
     PART-1-1.36896       NO       
     PART-1-1.36897       NO       
     PART-1-1.36898       NO       
     PART-1-1.36899       NO       
     PART-1-1.36900       NO       
     PART-1-1.36901       NO       
     PART-1-1.36902       NO       
     PART-1-1.36903       NO       
     PART-1-1.36904       NO       
     PART-1-1.36905       NO       
     PART-1-1.36906       NO       
     PART-1-1.36907       NO       
     PART-1-1.36908       NO       
     PART-1-1.36909       NO       
     PART-1-1.36910       NO       
     PART-1-1.36911       NO       
     PART-1-1.36912       NO       
     PART-1-1.36913       NO       
     PART-1-1.36914       NO       
     PART-1-1.36915       NO       
     PART-1-1.36916       NO       
     PART-1-1.36917       NO       
     PART-1-1.36918       NO       
     PART-1-1.36919       NO       
     PART-1-1.36920       NO       
     PART-1-1.36921       NO       
     PART-1-1.36922       NO       
     PART-1-1.36923       NO       
     PART-1-1.36924       NO       
     PART-1-1.36925       NO       
     PART-1-1.36926       NO       
     PART-1-1.36927       NO       
     PART-1-1.36928       NO       
     PART-1-1.36929       NO       
     PART-1-1.36930       NO       
     PART-1-1.36931       NO       
     PART-1-1.36932       NO       
     PART-1-1.36933       NO       
     PART-1-1.36934       NO       
     PART-1-1.36935       NO       
     PART-1-1.36936       NO       
     PART-1-1.36937       NO       
     PART-1-1.36938       NO       
     PART-1-1.36939       NO       
     PART-1-1.36940       NO       
     PART-1-1.36941       NO       
     PART-1-1.36942       NO       
     PART-1-1.36943       NO       
     PART-1-1.36944       NO       
     PART-1-1.36945       NO       
     PART-1-1.36946       NO       
     PART-1-1.36947       NO       
     PART-1-1.36948       NO       
     PART-1-1.36949       NO       
     PART-1-1.36950       NO       
     PART-1-1.36951       NO       
     PART-1-1.36952       NO       
     PART-1-1.36953       NO       
     PART-1-1.36954       NO       
     PART-1-1.36955       NO       
     PART-1-1.36956       NO       
     PART-1-1.36957       NO       
     PART-1-1.36958       NO       
     PART-1-1.36959       NO       
     PART-1-1.36960       NO       
     PART-1-1.36961       NO       
     PART-1-1.36962       NO       
     PART-1-1.36963       NO       
     PART-1-1.36964       NO       
     PART-1-1.36965       NO       
     PART-1-1.36966       NO       
     PART-1-1.36967       NO       
     PART-1-1.36968       NO       
     PART-1-1.36969       NO       
     PART-1-1.36970       NO       
     PART-1-1.36971       NO       
     PART-1-1.36972       NO       
     PART-1-1.36973       NO       
     PART-1-1.36974       NO       
     PART-1-1.36975       NO       
     PART-1-1.36976       NO       
     PART-1-1.36977       NO       
     PART-1-1.36978       NO       
     PART-1-1.36979       NO       
     PART-1-1.36980       NO       
     PART-1-1.36981       NO       
     PART-1-1.36982       NO       
     PART-1-1.36983       NO       
     PART-1-1.36984       NO       
     PART-1-1.36985       NO       
     PART-1-1.36986       NO       
     PART-1-1.36987       NO       
     PART-1-1.36988       NO       
     PART-1-1.36989       NO       
     PART-1-1.36990       NO       
     PART-1-1.36991       NO       
     PART-1-1.36992       NO       
     PART-1-1.36993       NO       
     PART-1-1.36994       NO       
     PART-1-1.36995       NO       
     PART-1-1.36996       NO       
     PART-1-1.36997       NO       
     PART-1-1.36998       NO       
     PART-1-1.36999       NO       
     PART-1-1.37000       NO       
     PART-1-1.37001       NO       
     PART-1-1.37002       NO       
     PART-1-1.37003       NO       
     PART-1-1.37004       NO       
     PART-1-1.37005       NO       
     PART-1-1.37006       NO       
     PART-1-1.37007       NO       
     PART-1-1.37008       NO       
     PART-1-1.37009       NO       
     PART-1-1.37010       NO       
     PART-1-1.37011       NO       
     PART-1-1.37012       NO       
     PART-1-1.37013       NO       
     PART-1-1.37014       NO       
     PART-1-1.37015       NO       
     PART-1-1.37016       NO       
     PART-1-1.37017       NO       
     PART-1-1.37018       NO       
     PART-1-1.37019       NO       
     PART-1-1.37020       NO       
     PART-1-1.37021       NO       
     PART-1-1.37022       NO       
     PART-1-1.37023       NO       
     PART-1-1.37024       NO       
     PART-1-1.37025       NO       
     PART-1-1.37026       NO       
     PART-1-1.37027       NO       
     PART-1-1.37028       NO       
     PART-1-1.37029       NO       
     PART-1-1.37030       NO       
     PART-1-1.37031       NO       
     PART-1-1.37032       NO       
     PART-1-1.37033       NO       
     PART-1-1.37034       NO       
     PART-1-1.37035       NO       
     PART-1-1.37036       NO       
     PART-1-1.37037       NO       
     PART-1-1.37038       NO       
     PART-1-1.37039       NO       
     PART-1-1.37040       NO       
     PART-1-1.37041       NO       
     PART-1-1.37042       NO       
     PART-1-1.37043       NO       
     PART-1-1.37044       NO       
     PART-1-1.37045       NO       
     PART-1-1.37046       NO       
     PART-1-1.37047       NO       
     PART-1-1.37048       NO       
     PART-1-1.37049       NO       
     PART-1-1.37050       NO       
     PART-1-1.37051       NO       
     PART-1-1.37052       NO       
     PART-1-1.37053       NO       
     PART-1-1.37054       NO       
     PART-1-1.37055       NO       
     PART-1-1.37056       NO       
     PART-1-1.37057       NO       
     PART-1-1.37058       NO       
     PART-1-1.37059       NO       
     PART-1-1.37060       NO       
     PART-1-1.37061       NO       
     PART-1-1.37062       NO       
     PART-1-1.37063       NO       
     PART-1-1.37064       NO       
     PART-1-1.37065       NO       
     PART-1-1.37066       NO       
     PART-1-1.37067       NO       
     PART-1-1.37068       NO       
     PART-1-1.37069       NO       
     PART-1-1.37070       NO       
     PART-1-1.37071       NO       
     PART-1-1.37072       NO       
     PART-1-1.37073       NO       
     PART-1-1.37074       NO       
     PART-1-1.37075       NO       
     PART-1-1.37076       NO       
     PART-1-1.37077       NO       
     PART-1-1.37078       NO       
     PART-1-1.37079       NO       
     PART-1-1.37080       NO       
     PART-1-1.37081       NO       
     PART-1-1.37082       NO       
     PART-1-1.37083       NO       
     PART-1-1.37084       NO       
     PART-1-1.37085       NO       
     PART-1-1.37086       NO       
     PART-1-1.37087       NO       
     PART-1-1.37088       NO       
     PART-1-1.37089       NO       
     PART-1-1.37090       NO       
     PART-1-1.37091       NO       
     PART-1-1.37092       NO       
     PART-1-1.37093       NO       
     PART-1-1.37094       NO       
     PART-1-1.37095       NO       
     PART-1-1.37096       NO       
     PART-1-1.37097       NO       
     PART-1-1.37098       NO       
     PART-1-1.37099       NO       
     PART-1-1.37100       NO       
     PART-1-1.37101       NO       
     PART-1-1.37102       NO       
     PART-1-1.37103       NO       
     PART-1-1.37104       NO       
     PART-1-1.37105       NO       
     PART-1-1.37106       NO       
     PART-1-1.37107       NO       
     PART-1-1.37108       NO       
     PART-1-1.37109       NO       
     PART-1-1.37110       NO       
     PART-1-1.37111       NO       
     PART-1-1.37112       NO       
     PART-1-1.37113       NO       
     PART-1-1.37114       NO       
     PART-1-1.37115       NO       
     PART-1-1.37116       NO       
     PART-1-1.37117       NO       
     PART-1-1.37118       NO       
     PART-1-1.37119       NO       
     PART-1-1.37120       NO       
     PART-1-1.37121       NO       
     PART-1-1.37122       NO       
     PART-1-1.37123       NO       
     PART-1-1.37124       NO       
     PART-1-1.37125       NO       
     PART-1-1.37126       NO       
     PART-1-1.37127       NO       
     PART-1-1.37128       NO       
     PART-1-1.37129       NO       
     PART-1-1.37130       NO       
     PART-1-1.37131       NO       
     PART-1-1.37132       NO       
     PART-1-1.37133       NO       
     PART-1-1.37134       NO       
     PART-1-1.37135       NO       
     PART-1-1.37136       NO       
     PART-1-1.37137       NO       
     PART-1-1.37138       NO       
     PART-1-1.37139       NO       
     PART-1-1.37140       NO       
     PART-1-1.37141       NO       
     PART-1-1.37142       NO       
     PART-1-1.37143       NO       
     PART-1-1.37144       NO       
     PART-1-1.37145       NO       
     PART-1-1.37146       NO       
     PART-1-1.37147       NO       
     PART-1-1.37148       NO       
     PART-1-1.37149       NO       
     PART-1-1.37150       NO       
     PART-1-1.37151       NO       
     PART-1-1.37152       NO       
     PART-1-1.37153       NO       
     PART-1-1.37154       NO       
     PART-1-1.37155       NO       
     PART-1-1.37156       NO       
     PART-1-1.37157       NO       
     PART-1-1.37158       NO       
     PART-1-1.37159       NO       
     PART-1-1.37160       NO       
     PART-1-1.37161       NO       
     PART-1-1.37162       NO       
     PART-1-1.37163       NO       
     PART-1-1.37164       NO       
     PART-1-1.37165       NO       
     PART-1-1.37166       NO       
     PART-1-1.37167       NO       
     PART-1-1.37168       NO       
     PART-1-1.37169       NO       
     PART-1-1.37170       NO       
     PART-1-1.37171       NO       
     PART-1-1.37172       NO       
     PART-1-1.37173       NO       
     PART-1-1.37174       NO       
     PART-1-1.37175       NO       
     PART-1-1.37176       NO       
     PART-1-1.37177       NO       
     PART-1-1.37178       NO       
     PART-1-1.37179       NO       
     PART-1-1.37180       NO       
     PART-1-1.37181       NO       
     PART-1-1.37182       NO       
     PART-1-1.37183       NO       
     PART-1-1.37184       NO       
     PART-1-1.37185       NO       
     PART-1-1.37186       NO       
     PART-1-1.37187       NO       
     PART-1-1.37188       NO       
     PART-1-1.37189       NO       
     PART-1-1.37190       NO       
     PART-1-1.37191       NO       
     PART-1-1.37192       NO       
     PART-1-1.37193       NO       
     PART-1-1.37194       NO       
     PART-1-1.37195       NO       
     PART-1-1.37196       NO       
     PART-1-1.37197       NO       
     PART-1-1.37198       NO       
     PART-1-1.37199       NO       
     PART-1-1.37200       NO       
     PART-1-1.37201       NO       
     PART-1-1.37202       NO       
     PART-1-1.37203       NO       
     PART-1-1.37204       NO       
     PART-1-1.37205       NO       
     PART-1-1.37206       NO       
     PART-1-1.37207       NO       
     PART-1-1.37208       NO       
     PART-1-1.37209       NO       
     PART-1-1.37210       NO       
     PART-1-1.37211       NO       
     PART-1-1.37212       NO       
     PART-1-1.37213       NO       
     PART-1-1.37214       NO       
     PART-1-1.37215       NO       
     PART-1-1.37216       NO       
     PART-1-1.37217       NO       
     PART-1-1.37218       NO       
     PART-1-1.37219       NO       
     PART-1-1.37220       NO       
     PART-1-1.37221       NO       
     PART-1-1.37222       NO       
     PART-1-1.37223       NO       
     PART-1-1.37224       NO       
     PART-1-1.37225       NO       
     PART-1-1.37226       NO       
     PART-1-1.37227       NO       
     PART-1-1.37228       NO       
     PART-1-1.37229       NO       
     PART-1-1.37230       NO       
     PART-1-1.37231       NO       
     PART-1-1.37232       NO       
     PART-1-1.37233       NO       
     PART-1-1.37234       NO       
     PART-1-1.37235       NO       
     PART-1-1.37236       NO       
     PART-1-1.37237       NO       
     PART-1-1.37238       NO       
     PART-1-1.37239       NO       
     PART-1-1.37240       NO       
     PART-1-1.37241       NO       
     PART-1-1.37242       NO       
     PART-1-1.37243       NO       
     PART-1-1.37244       NO       
     PART-1-1.37245       NO       
     PART-1-1.37246       NO       
     PART-1-1.37247       NO       
     PART-1-1.37248       NO       
     PART-1-1.37249       NO       
     PART-1-1.37250       NO       
     PART-1-1.37251       NO       
     PART-1-1.37252       NO       
     PART-1-1.37253       NO       
     PART-1-1.37254       NO       
     PART-1-1.37255       NO       
     PART-1-1.37256       NO       
     PART-1-1.37257       NO       
     PART-1-1.37258       NO       
     PART-1-1.37259       NO       
     PART-1-1.37260       NO       
     PART-1-1.37261       NO       
     PART-1-1.37262       NO       
     PART-1-1.37263       NO       
     PART-1-1.37264       NO       
     PART-1-1.37265       NO       
     PART-1-1.37266       NO       
     PART-1-1.37267       NO       
     PART-1-1.37268       NO       
     PART-1-1.37269       NO       
     PART-1-1.37270       NO       
     PART-1-1.37271       NO       
     PART-1-1.37272       NO       
     PART-1-1.37273       NO       
     PART-1-1.37274       NO       
     PART-1-1.37275       NO       
     PART-1-1.37276       NO       
     PART-1-1.37277       NO       
     PART-1-1.37278       NO       
     PART-1-1.37279       NO       
     PART-1-1.37280       NO       
     PART-1-1.37281       NO       
     PART-1-1.37282       NO       
     PART-1-1.37283       NO       
     PART-1-1.37284       NO       
     PART-1-1.37285       NO       
     PART-1-1.37286       NO       
     PART-1-1.37287       NO       
     PART-1-1.37288       NO       
     PART-1-1.37289       NO       
     PART-1-1.37290       NO       
     PART-1-1.37291       NO       
     PART-1-1.37292       NO       
     PART-1-1.37293       NO       
     PART-1-1.37294       NO       
     PART-1-1.37295       NO       
     PART-1-1.37296       NO       
     PART-1-1.37297       NO       
     PART-1-1.37298       NO       
     PART-1-1.37299       NO       
     PART-1-1.37300       NO       
     PART-1-1.37301       NO       
     PART-1-1.37302       NO       
     PART-1-1.37303       NO       
     PART-1-1.37304       NO       
     PART-1-1.37305       NO       
     PART-1-1.37306       NO       
     PART-1-1.37307       NO       
     PART-1-1.37308       NO       
     PART-1-1.37309       NO       
     PART-1-1.37310       NO       
     PART-1-1.37311       NO       
     PART-1-1.37312       NO       
     PART-1-1.37313       NO       
     PART-1-1.37314       NO       
     PART-1-1.37315       NO       
     PART-1-1.37316       NO       
     PART-1-1.37317       NO       
     PART-1-1.37318       NO       
     PART-1-1.37319       NO       
     PART-1-1.37320       NO       
     PART-1-1.37321       NO       
     PART-1-1.37322       NO       
     PART-1-1.37323       NO       
     PART-1-1.37324       NO       
     PART-1-1.37325       NO       
     PART-1-1.37326       NO       
     PART-1-1.37327       NO       
     PART-1-1.37328       NO       
     PART-1-1.37329       NO       
     PART-1-1.37330       NO       
     PART-1-1.37331       NO       
     PART-1-1.37332       NO       
     PART-1-1.37333       NO       
     PART-1-1.37334       NO       
     PART-1-1.37335       NO       
     PART-1-1.37336       NO       
     PART-1-1.37337       NO       
     PART-1-1.37338       NO       
     PART-1-1.37339       NO       
     PART-1-1.37340       NO       
     PART-1-1.37341       NO       
     PART-1-1.37342       NO       
     PART-1-1.37343       NO       
     PART-1-1.37344       NO       
     PART-1-1.37345       NO       
     PART-1-1.37346       NO       
     PART-1-1.37347       NO       
     PART-1-1.37348       NO       
     PART-1-1.37349       NO       
     PART-1-1.37350       NO       
     PART-1-1.37351       NO       
     PART-1-1.37352       NO       
     PART-1-1.37353       NO       
     PART-1-1.37354       NO       
     PART-1-1.37355       NO       
     PART-1-1.37356       NO       
     PART-1-1.37357       NO       
     PART-1-1.37358       NO       
     PART-1-1.37359       NO       
     PART-1-1.37360       NO       
     PART-1-1.37361       NO       
     PART-1-1.37362       NO       
     PART-1-1.37363       NO       
     PART-1-1.37364       NO       
     PART-1-1.37365       NO       
     PART-1-1.37366       NO       
     PART-1-1.37367       NO       
     PART-1-1.37368       NO       
     PART-1-1.37369       NO       
     PART-1-1.37370       NO       
     PART-1-1.37371       NO       
     PART-1-1.37372       NO       
     PART-1-1.37373       NO       
     PART-1-1.37374       NO       
     PART-1-1.37375       NO       
     PART-1-1.37376       NO       
     PART-1-1.37377       NO       
     PART-1-1.37378       NO       
     PART-1-1.37379       NO       
     PART-1-1.37380       NO       
     PART-1-1.37381       NO       
     PART-1-1.37382       NO       
     PART-1-1.37383       NO       
     PART-1-1.37384       NO       
     PART-1-1.37385       NO       
     PART-1-1.37386       NO       
     PART-1-1.37387       NO       
     PART-1-1.37388       NO       
     PART-1-1.37389       NO       
     PART-1-1.37390       NO       
     PART-1-1.37391       NO       
     PART-1-1.37392       NO       
     PART-1-1.37393       NO       
     PART-1-1.37394       NO       
     PART-1-1.37395       NO       
     PART-1-1.37396       NO       
     PART-1-1.37397       NO       
     PART-1-1.37398       NO       
     PART-1-1.37399       NO       
     PART-1-1.37400       NO       
     PART-1-1.37401       NO       
     PART-1-1.37402       NO       
     PART-1-1.37403       NO       
     PART-1-1.37404       NO       
     PART-1-1.37405       NO       
     PART-1-1.37406       NO       
     PART-1-1.37407       NO       
     PART-1-1.37408       NO       
     PART-1-1.37409       NO       
     PART-1-1.37410       NO       
     PART-1-1.37411       NO       
     PART-1-1.37412       NO       
     PART-1-1.37413       NO       
     PART-1-1.37414       NO       
     PART-1-1.37415       NO       
     PART-1-1.37416       NO       
     PART-1-1.37417       NO       
     PART-1-1.37418       NO       
     PART-1-1.37419       NO       
     PART-1-1.37420       NO       
     PART-1-1.37421       NO       
     PART-1-1.37422       NO       
     PART-1-1.37423       NO       
     PART-1-1.37424       NO       
     PART-1-1.37425       NO       
     PART-1-1.37426       NO       
     PART-1-1.37427       NO       
     PART-1-1.37428       NO       
     PART-1-1.37429       NO       
     PART-1-1.37430       NO       
     PART-1-1.37431       NO       
     PART-1-1.37432       NO       
     PART-1-1.37433       NO       
     PART-1-1.37434       NO       
     PART-1-1.37435       NO       
     PART-1-1.37436       NO       
     PART-1-1.37437       NO       
     PART-1-1.37438       NO       
     PART-1-1.37439       NO       
     PART-1-1.37440       NO       
     PART-1-1.37441       NO       
     PART-1-1.37442       NO       
     PART-1-1.37443       NO       
     PART-1-1.37444       NO       
     PART-1-1.37445       NO       
     PART-1-1.37446       NO       
     PART-1-1.37447       NO       
     PART-1-1.37448       NO       
     PART-1-1.37449       NO       
     PART-1-1.37450       NO       
     PART-1-1.37451       NO       
     PART-1-1.37452       NO       
     PART-1-1.37453       NO       
     PART-1-1.37454       NO       
     PART-1-1.37455       NO       
     PART-1-1.37456       NO       
     PART-1-1.37457       NO       
     PART-1-1.37458       NO       
     PART-1-1.37459       NO       
     PART-1-1.37460       NO       
     PART-1-1.37461       NO       
     PART-1-1.37462       NO       
     PART-1-1.37463       NO       
     PART-1-1.37464       NO       
     PART-1-1.37465       NO       
     PART-1-1.37466       NO       
     PART-1-1.37467       NO       
     PART-1-1.37468       NO       
     PART-1-1.37469       NO       
     PART-1-1.37470       NO       
     PART-1-1.37471       NO       
     PART-1-1.37472       NO       
     PART-1-1.37473       NO       
     PART-1-1.37474       NO       
     PART-1-1.37475       NO       
     PART-1-1.37476       NO       
     PART-1-1.37477       NO       
     PART-1-1.37478       NO       
     PART-1-1.37479       NO       
     PART-1-1.37480       NO       
     PART-1-1.37481       NO       
     PART-1-1.37482       NO       
     PART-1-1.37483       NO       
     PART-1-1.37484       NO       
     PART-1-1.37485       NO       
     PART-1-1.37486       NO       
     PART-1-1.37487       NO       
     PART-1-1.37488       NO       
     PART-1-1.37489       NO       
     PART-1-1.37490       NO       
     PART-1-1.37491       NO       
     PART-1-1.37492       NO       
     PART-1-1.37493       NO       
     PART-1-1.37494       NO       
     PART-1-1.37495       NO       
     PART-1-1.37496       NO       
     PART-1-1.37497       NO       
     PART-1-1.37498       NO       
     PART-1-1.37499       NO       
     PART-1-1.37500       NO       
     PART-1-1.37501       NO       
     PART-1-1.37502       NO       
     PART-1-1.37503       NO       
     PART-1-1.37504       NO       
     PART-1-1.37505       NO       
     PART-1-1.37506       NO       
     PART-1-1.37507       NO       
     PART-1-1.37508       NO       
     PART-1-1.37509       NO       
     PART-1-1.37510       NO       
     PART-1-1.37511       NO       
     PART-1-1.37512       NO       
     PART-1-1.37513       NO       
     PART-1-1.37514       NO       
     PART-1-1.37515       NO       
     PART-1-1.37516       NO       
     PART-1-1.37517       NO       
     PART-1-1.37518       NO       
     PART-1-1.37519       NO       
     PART-1-1.37520       NO       
     PART-1-1.37521       NO       
     PART-1-1.37522       NO       
     PART-1-1.37523       NO       
     PART-1-1.37524       NO       
     PART-1-1.37525       NO       
     PART-1-1.37526       NO       
     PART-1-1.37527       NO       
     PART-1-1.37528       NO       
     PART-1-1.37529       NO       
     PART-1-1.37530       NO       
     PART-1-1.37531       NO       
     PART-1-1.37532       NO       
     PART-1-1.37533       NO       
     PART-1-1.37534       NO       
     PART-1-1.37535       NO       
     PART-1-1.37536       NO       
     PART-1-1.37537       NO       
     PART-1-1.37538       NO       
     PART-1-1.37539       NO       
     PART-1-1.37540       NO       
     PART-1-1.37541       NO       
     PART-1-1.37542       NO       
     PART-1-1.37543       NO       
     PART-1-1.37544       NO       
     PART-1-1.37545       NO       
     PART-1-1.37546       NO       
     PART-1-1.37547       NO       
     PART-1-1.37548       NO       
     PART-1-1.37549       NO       
     PART-1-1.37550       NO       
     PART-1-1.37551       NO       
     PART-1-1.37552       NO       
     PART-1-1.37553       NO       
     PART-1-1.37554       NO       
     PART-1-1.37555       NO       
     PART-1-1.37556       NO       
     PART-1-1.37557       NO       
     PART-1-1.37558       NO       
     PART-1-1.37559       NO       
     PART-1-1.37560       NO       
     PART-1-1.37561       NO       
     PART-1-1.37562       NO       
     PART-1-1.37563       NO       
     PART-1-1.37564       NO       
     PART-1-1.37565       NO       
     PART-1-1.37566       NO       
     PART-1-1.37567       NO       
     PART-1-1.37568       NO       
     PART-1-1.37569       NO       
     PART-1-1.37570       NO       
     PART-1-1.37571       NO       
     PART-1-1.37572       NO       
     PART-1-1.37573       NO       
     PART-1-1.37574       NO       
     PART-1-1.37575       NO       
     PART-1-1.37576       NO       
     PART-1-1.37577       NO       
     PART-1-1.37578       NO       
     PART-1-1.37579       NO       
     PART-1-1.37580       NO       
     PART-1-1.37581       NO       
     PART-1-1.37582       NO       
     PART-1-1.37583       NO       
     PART-1-1.37584       NO       
     PART-1-1.37585       NO       
     PART-1-1.37586       NO       
     PART-1-1.37587       NO       
     PART-1-1.37588       NO       
     PART-1-1.37589       NO       
     PART-1-1.37590       NO       
     PART-1-1.37591       NO       
     PART-1-1.37592       NO       
     PART-1-1.37593       NO       
     PART-1-1.37594       NO       
     PART-1-1.37595       NO       
     PART-1-1.37596       NO       
     PART-1-1.37597       NO       
     PART-1-1.37598       NO       
     PART-1-1.37599       NO       
     PART-1-1.37600       NO       
     PART-1-1.37601       NO       
     PART-1-1.37602       NO       
     PART-1-1.37603       NO       
     PART-1-1.37604       NO       
     PART-1-1.37605       NO       
     PART-1-1.37606       NO       
     PART-1-1.37607       NO       
     PART-1-1.37608       NO       
     PART-1-1.37609       NO       
     PART-1-1.37610       NO       
     PART-1-1.37611       NO       
     PART-1-1.37612       NO       
     PART-1-1.37613       NO       
     PART-1-1.37614       NO       
     PART-1-1.37615       NO       
     PART-1-1.37616       NO       
     PART-1-1.37617       NO       
     PART-1-1.37618       NO       
     PART-1-1.37619       NO       
     PART-1-1.37620       NO       
     PART-1-1.37621       NO       
     PART-1-1.37622       NO       
     PART-1-1.37623       NO       
     PART-1-1.37624       NO       
     PART-1-1.37625       NO       
     PART-1-1.37626       NO       
     PART-1-1.37627       NO       
     PART-1-1.37628       NO       
     PART-1-1.37629       NO       
     PART-1-1.37630       NO       
     PART-1-1.37631       NO       
     PART-1-1.37632       NO       
     PART-1-1.37633       NO       
     PART-1-1.37634       NO       
     PART-1-1.37635       NO       
     PART-1-1.37636       NO       
     PART-1-1.37637       NO       
     PART-1-1.37638       NO       
     PART-1-1.37639       NO       
     PART-1-1.37640       NO       
     PART-1-1.37641       NO       
     PART-1-1.37642       NO       
     PART-1-1.37643       NO       
     PART-1-1.37644       NO       
     PART-1-1.37645       NO       
     PART-1-1.37646       NO       
     PART-1-1.37647       NO       
     PART-1-1.37648       NO       
     PART-1-1.37649       NO       
     PART-1-1.37650       NO       
     PART-1-1.37651       NO       
     PART-1-1.37652       NO       
     PART-1-1.37653       NO       
     PART-1-1.37654       NO       
     PART-1-1.37655       NO       
     PART-1-1.37656       NO       
     PART-1-1.37657       NO       
     PART-1-1.37658       NO       
     PART-1-1.37659       NO       
     PART-1-1.37660       NO       
     PART-1-1.37661       NO       
     PART-1-1.37662       NO       
     PART-1-1.37663       NO       
     PART-1-1.37664       NO       
     PART-1-1.37665       NO       
     PART-1-1.37666       NO       
     PART-1-1.37667       NO       
     PART-1-1.37668       NO       
     PART-1-1.37669       NO       
     PART-1-1.37670       NO       
     PART-1-1.37671       NO       
     PART-1-1.37672       NO       
     PART-1-1.37673       NO       
     PART-1-1.37674       NO       
     PART-1-1.37675       NO       
     PART-1-1.37676       NO       
     PART-1-1.37677       NO       
     PART-1-1.37678       NO       
     PART-1-1.37679       NO       
     PART-1-1.37680       NO       
     PART-1-1.37681       NO       
     PART-1-1.37682       NO       
     PART-1-1.37683       NO       
     PART-1-1.37684       NO       
     PART-1-1.37685       NO       
     PART-1-1.37686       NO       
     PART-1-1.37687       NO       
     PART-1-1.37688       NO       
     PART-1-1.37689       NO       
     PART-1-1.37690       NO       
     PART-1-1.37691       NO       
     PART-1-1.37692       NO       
     PART-1-1.37693       NO       
     PART-1-1.37694       NO       
     PART-1-1.37695       NO       
     PART-1-1.37696       NO       
     PART-1-1.37697       NO       
     PART-1-1.37698       NO       
     PART-1-1.37699       NO       
     PART-1-1.37700       NO       
     PART-1-1.37701       NO       
     PART-1-1.37702       NO       
     PART-1-1.37703       NO       
     PART-1-1.37704       NO       
     PART-1-1.37705       NO       
     PART-1-1.37706       NO       
     PART-1-1.37707       NO       
     PART-1-1.37708       NO       
     PART-1-1.37709       NO       
     PART-1-1.37710       NO       
     PART-1-1.37711       NO       
     PART-1-1.37712       NO       
     PART-1-1.37713       NO       
     PART-1-1.37714       NO       
     PART-1-1.37715       NO       
     PART-1-1.37716       NO       
     PART-1-1.37717       NO       
     PART-1-1.37718       NO       
     PART-1-1.37719       NO       
     PART-1-1.37720       NO       
     PART-1-1.37721       NO       
     PART-1-1.37722       NO       
     PART-1-1.37723       NO       
     PART-1-1.37724       NO       
     PART-1-1.37725       NO       
     PART-1-1.37726       NO       
     PART-1-1.37727       NO       
     PART-1-1.37728       NO       
     PART-1-1.37729       NO       
     PART-1-1.37730       NO       
     PART-1-1.37731       NO       
     PART-1-1.37732       NO       
     PART-1-1.37733       NO       
     PART-1-1.37734       NO       
     PART-1-1.37735       NO       
     PART-1-1.37736       NO       
     PART-1-1.37737       NO       
     PART-1-1.37738       NO       
     PART-1-1.37739       NO       
     PART-1-1.37740       NO       
     PART-1-1.37741       NO       
     PART-1-1.37742       NO       
     PART-1-1.37743       NO       
     PART-1-1.37744       NO       
     PART-1-1.37745       NO       
     PART-1-1.37746       NO       
     PART-1-1.37747       NO       
     PART-1-1.37748       NO       
     PART-1-1.37749       NO       
     PART-1-1.37750       NO       
     PART-1-1.37751       NO       
     PART-1-1.37752       NO       
     PART-1-1.37753       NO       
     PART-1-1.37754       NO       
     PART-1-1.37755       NO       
     PART-1-1.37756       NO       
     PART-1-1.37757       NO       
     PART-1-1.37758       NO       
     PART-1-1.37759       NO       
     PART-1-1.37760       NO       
     PART-1-1.37761       NO       
     PART-1-1.37762       NO       
     PART-1-1.37763       NO       
     PART-1-1.37764       NO       
     PART-1-1.37765       NO       
     PART-1-1.37766       NO       
     PART-1-1.37767       NO       
     PART-1-1.37768       NO       
     PART-1-1.37769       NO       
     PART-1-1.37770       NO       
     PART-1-1.37771       NO       
     PART-1-1.37772       NO       
     PART-1-1.37773       NO       
     PART-1-1.37774       NO       
     PART-1-1.37775       NO       
     PART-1-1.37776       NO       
     PART-1-1.37777       NO       
     PART-1-1.37778       NO       
     PART-1-1.37779       NO       
     PART-1-1.37780       NO       
     PART-1-1.37781       NO       
     PART-1-1.37782       NO       
     PART-1-1.37783       NO       
     PART-1-1.37784       NO       
     PART-1-1.37785       NO       
     PART-1-1.37786       NO       
     PART-1-1.37787       NO       
     PART-1-1.37788       NO       
     PART-1-1.37789       NO       
     PART-1-1.37790       NO       
     PART-1-1.37791       NO       
     PART-1-1.37792       NO       
     PART-1-1.37793       NO       
     PART-1-1.37794       NO       
     PART-1-1.37795       NO       
     PART-1-1.37796       NO       
     PART-1-1.37797       NO       
     PART-1-1.37798       NO       
     PART-1-1.37799       NO       
     PART-1-1.37800       NO       
     PART-1-1.37801       NO       
     PART-1-1.37802       NO       
     PART-1-1.37803       NO       
     PART-1-1.37804       NO       
     PART-1-1.37805       NO       
     PART-1-1.37806       NO       
     PART-1-1.37807       NO       
     PART-1-1.37808       NO       
     PART-1-1.37809       NO       
     PART-1-1.37810       NO       
     PART-1-1.37811       NO       
     PART-1-1.37812       NO       
     PART-1-1.37813       NO       
     PART-1-1.37814       NO       
     PART-1-1.37815       NO       
     PART-1-1.37816       NO       
     PART-1-1.37817       NO       
     PART-1-1.37818       NO       
     PART-1-1.37819       NO       
     PART-1-1.37820       NO       
     PART-1-1.37821       NO       
     PART-1-1.37822       NO       
     PART-1-1.37823       NO       
     PART-1-1.37824       NO       
     PART-1-1.37825       NO       
     PART-1-1.37826       NO       
     PART-1-1.37827       NO       
     PART-1-1.37828       NO       
     PART-1-1.37829       NO       
     PART-1-1.37830       NO       
     PART-1-1.37831       NO       
     PART-1-1.37832       NO       
     PART-1-1.37833       NO       
     PART-1-1.37834       NO       
     PART-1-1.37835       NO       
     PART-1-1.37836       NO       
     PART-1-1.37837       NO       
     PART-1-1.37838       NO       
     PART-1-1.37839       NO       
     PART-1-1.37840       NO       
     PART-1-1.37841       NO       
     PART-1-1.37842       NO       
     PART-1-1.37843       NO       
     PART-1-1.37844       NO       
     PART-1-1.37845       NO       
     PART-1-1.37846       NO       
     PART-1-1.37847       NO       
     PART-1-1.37848       NO       
     PART-1-1.37849       NO       
     PART-1-1.37850       NO       
     PART-1-1.37851       NO       
     PART-1-1.37852       NO       
     PART-1-1.37853       NO       
     PART-1-1.37854       NO       
     PART-1-1.37855       NO       
     PART-1-1.37856       NO       
     PART-1-1.37857       NO       
     PART-1-1.37858       NO       
     PART-1-1.37859       NO       
     PART-1-1.37860       NO       
     PART-1-1.37861       NO       
     PART-1-1.37862       NO       
     PART-1-1.37863       NO       
     PART-1-1.37864       NO       
     PART-1-1.37865       NO       
     PART-1-1.37866       NO       
     PART-1-1.37867       NO       
     PART-1-1.37868       NO       
     PART-1-1.37869       NO       
     PART-1-1.37870       NO       
     PART-1-1.37871       NO       
     PART-1-1.37872       NO       
     PART-1-1.37873       NO       
     PART-1-1.37874       NO       
     PART-1-1.37875       NO       
     PART-1-1.37876       NO       
     PART-1-1.37877       NO       
     PART-1-1.37878       NO       
     PART-1-1.37879       NO       
     PART-1-1.37880       NO       
     PART-1-1.37881       NO       
     PART-1-1.37882       NO       
     PART-1-1.37883       NO       
     PART-1-1.37884       NO       
     PART-1-1.37885       NO       
     PART-1-1.37886       NO       
     PART-1-1.37887       NO       
     PART-1-1.37888       NO       
     PART-1-1.37889       NO       
     PART-1-1.37890       NO       
     PART-1-1.37891       NO       
     PART-1-1.37892       NO       
     PART-1-1.37893       NO       
     PART-1-1.37894       NO       
     PART-1-1.37895       NO       
     PART-1-1.37896       NO       
     PART-1-1.37897       NO       
     PART-1-1.37898       NO       
     PART-1-1.37899       NO       
     PART-1-1.37900       NO       
     PART-1-1.37901       NO       
     PART-1-1.37902       NO       
     PART-1-1.37903       NO       
     PART-1-1.37904       NO       
     PART-1-1.37905       NO       
     PART-1-1.37906       NO       
     PART-1-1.37907       NO       
     PART-1-1.37908       NO       
     PART-1-1.37909       NO       
     PART-1-1.37910       NO       
     PART-1-1.37911       NO       
     PART-1-1.37912       NO       
     PART-1-1.37913       NO       
     PART-1-1.37914       NO       
     PART-1-1.37915       NO       
     PART-1-1.37916       NO       
     PART-1-1.37917       NO       
     PART-1-1.37918       NO       
     PART-1-1.37919       NO       
     PART-1-1.37920       NO       
     PART-1-1.37921       NO       
     PART-1-1.37922       NO       
     PART-1-1.37923       NO       
     PART-1-1.37924       NO       
     PART-1-1.37925       NO       
     PART-1-1.37926       NO       
     PART-1-1.37927       NO       
     PART-1-1.37928       NO       
     PART-1-1.37929       NO       
     PART-1-1.37930       NO       
     PART-1-1.37931       NO       
     PART-1-1.37932       NO       
     PART-1-1.37933       NO       
     PART-1-1.37934       NO       
     PART-1-1.37935       NO       
     PART-1-1.37936       NO       
     PART-1-1.37937       NO       
     PART-1-1.37938       NO       
     PART-1-1.37939       NO       
     PART-1-1.37940       NO       
     PART-1-1.37941       NO       
     PART-1-1.37942       NO       
     PART-1-1.37943       NO       
     PART-1-1.37944       NO       
     PART-1-1.37945       NO       
     PART-1-1.37946       NO       
     PART-1-1.37947       NO       
     PART-1-1.37948       NO       
     PART-1-1.37949       NO       
     PART-1-1.37950       NO       
     PART-1-1.37951       NO       
     PART-1-1.37952       NO       
     PART-1-1.37953       NO       
     PART-1-1.37954       NO       
     PART-1-1.37955       NO       
     PART-1-1.37956       NO       
     PART-1-1.37957       NO       
     PART-1-1.37958       NO       
     PART-1-1.37959       NO       
     PART-1-1.37960       NO       
     PART-1-1.37961       NO       
     PART-1-1.37962       NO       
     PART-1-1.37963       NO       
     PART-1-1.37964       NO       
     PART-1-1.37965       NO       
     PART-1-1.37966       NO       
     PART-1-1.37967       NO       
     PART-1-1.37968       NO       
     PART-1-1.37969       NO       
     PART-1-1.37970       NO       
     PART-1-1.37971       NO       
     PART-1-1.37972       NO       
     PART-1-1.37973       NO       
     PART-1-1.37974       NO       
     PART-1-1.37975       NO       
     PART-1-1.37976       NO       
     PART-1-1.37977       NO       
     PART-1-1.37978       NO       
     PART-1-1.37979       NO       
     PART-1-1.37980       NO       
     PART-1-1.37981       NO       
     PART-1-1.37982       NO       
     PART-1-1.37983       NO       
     PART-1-1.37984       NO       
     PART-1-1.37985       NO       
     PART-1-1.37986       NO       
     PART-1-1.37987       NO       
     PART-1-1.37988       NO       
     PART-1-1.37989       NO       
     PART-1-1.37990       NO       
     PART-1-1.37991       NO       
     PART-1-1.37992       NO       
     PART-1-1.37993       NO       
     PART-1-1.37994       NO       
     PART-1-1.37995       NO       
     PART-1-1.37996       NO       
     PART-1-1.37997       NO       
     PART-1-1.37998       NO       
     PART-1-1.37999       NO       
     PART-1-1.38000       NO       
     PART-1-1.38001       NO       
     PART-1-1.38002       NO       
     PART-1-1.38003       NO       
     PART-1-1.38004       NO       
     PART-1-1.38005       NO       
     PART-1-1.38006       NO       
     PART-1-1.38007       NO       
     PART-1-1.38008       NO       
     PART-1-1.38009       NO       
     PART-1-1.38010       NO       
     PART-1-1.38011       NO       
     PART-1-1.38012       NO       
     PART-1-1.38013       NO       
     PART-1-1.38014       NO       
     PART-1-1.38015       NO       
     PART-1-1.38016       NO       
     PART-1-1.38017       NO       
     PART-1-1.38018       NO       
     PART-1-1.38019       NO       
     PART-1-1.38020       NO       
     PART-1-1.38021       NO       
     PART-1-1.38022       NO       
     PART-1-1.38023       NO       
     PART-1-1.38024       NO       
     PART-1-1.38025       NO       
     PART-1-1.38026       NO       
     PART-1-1.38027       NO       
     PART-1-1.38028       NO       
     PART-1-1.38029       NO       
     PART-1-1.38030       NO       
     PART-1-1.38031       NO       
     PART-1-1.38032       NO       
     PART-1-1.38033       NO       
     PART-1-1.38034       NO       
     PART-1-1.38035       NO       
     PART-1-1.38036       NO       
     PART-1-1.38037       NO       
     PART-1-1.38038       NO       
     PART-1-1.38039       NO       
     PART-1-1.38040       NO       
     PART-1-1.38041       NO       
     PART-1-1.38042       NO       
     PART-1-1.38043       NO       
     PART-1-1.38044       NO       
     PART-1-1.38045       NO       
     PART-1-1.38046       NO       
     PART-1-1.38047       NO       
     PART-1-1.38048       NO       
     PART-1-1.38049       NO       
     PART-1-1.38050       NO       
     PART-1-1.38051       NO       
     PART-1-1.38052       NO       
     PART-1-1.38053       NO       
     PART-1-1.38054       NO       
     PART-1-1.38055       NO       
     PART-1-1.38056       NO       
     PART-1-1.38057       NO       
     PART-1-1.38058       NO       
     PART-1-1.38059       NO       
     PART-1-1.38060       NO       
     PART-1-1.38061       NO       
     PART-1-1.38062       NO       
     PART-1-1.38063       NO       
     PART-1-1.38064       NO       
     PART-1-1.38065       NO       
     PART-1-1.38066       NO       
     PART-1-1.38067       NO       
     PART-1-1.38068       NO       
     PART-1-1.38069       NO       
     PART-1-1.38070       NO       
     PART-1-1.38071       NO       
     PART-1-1.38072       NO       
     PART-1-1.38073       NO       
     PART-1-1.38074       NO       
     PART-1-1.38075       NO       
     PART-1-1.38076       NO       
     PART-1-1.38077       NO       
     PART-1-1.38078       NO       
     PART-1-1.38079       NO       
     PART-1-1.38080       NO       
     PART-1-1.38081       NO       
     PART-1-1.38082       NO       
     PART-1-1.38083       NO       
     PART-1-1.38084       NO       
     PART-1-1.38085       NO       
     PART-1-1.38086       NO       
     PART-1-1.38087       NO       
     PART-1-1.38088       NO       
     PART-1-1.38089       NO       
     PART-1-1.38090       NO       
     PART-1-1.38091       NO       
     PART-1-1.38092       NO       
     PART-1-1.38093       NO       
     PART-1-1.38094       NO       
     PART-1-1.38095       NO       
     PART-1-1.38096       NO       
     PART-1-1.38097       NO       
     PART-1-1.38098       NO       
     PART-1-1.38099       NO       
     PART-1-1.38100       NO       
     PART-1-1.38101       NO       
     PART-1-1.38102       NO       
     PART-1-1.38103       NO       
     PART-1-1.38104       NO       
     PART-1-1.38105       NO       
     PART-1-1.38106       NO       
     PART-1-1.38107       NO       
     PART-1-1.38108       NO       
     PART-1-1.38109       NO       
     PART-1-1.38110       NO       
     PART-1-1.38111       NO       
     PART-1-1.38112       NO       
     PART-1-1.38113       NO       
     PART-1-1.38114       NO       
     PART-1-1.38115       NO       
     PART-1-1.38116       NO       
     PART-1-1.38117       NO       
     PART-1-1.38118       NO       
     PART-1-1.38119       NO       
     PART-1-1.38120       NO       
     PART-1-1.38121       NO       
     PART-1-1.38122       NO       
     PART-1-1.38123       NO       
     PART-1-1.38124       NO       
     PART-1-1.38125       NO       
     PART-1-1.38126       NO       
     PART-1-1.38127       NO       
     PART-1-1.38128       NO       
     PART-1-1.38129       NO       
     PART-1-1.38130       NO       
     PART-1-1.38131       NO       
     PART-1-1.38132       NO       
     PART-1-1.38133       NO       
     PART-1-1.38134       NO       
     PART-1-1.38135       NO       
     PART-1-1.38136       NO       
     PART-1-1.38137       NO       
     PART-1-1.38138       NO       
     PART-1-1.38139       NO       
     PART-1-1.38140       NO       
     PART-1-1.38141       NO       
     PART-1-1.38142       NO       
     PART-1-1.38143       NO       
     PART-1-1.38144       NO       
     PART-1-1.38145       NO       
     PART-1-1.38146       NO       
     PART-1-1.38147       NO       
     PART-1-1.38148       NO       
     PART-1-1.38149       NO       
     PART-1-1.38150       NO       
     PART-1-1.38151       NO       
     PART-1-1.38152       NO       
     PART-1-1.38153       NO       
     PART-1-1.38154       NO       
     PART-1-1.38155       NO       
     PART-1-1.38156       NO       
     PART-1-1.38157       NO       
     PART-1-1.38158       NO       
     PART-1-1.38159       NO       
     PART-1-1.38160       NO       
     PART-1-1.38161       NO       
     PART-1-1.38162       NO       
     PART-1-1.38163       NO       
     PART-1-1.38164       NO       
     PART-1-1.38165       NO       
     PART-1-1.38166       NO       
     PART-1-1.38167       NO       
     PART-1-1.38168       NO       
     PART-1-1.38169       NO       
     PART-1-1.38170       NO       
     PART-1-1.38171       NO       
     PART-1-1.38172       NO       
     PART-1-1.38173       NO       
     PART-1-1.38174       NO       
     PART-1-1.38175       NO       
     PART-1-1.38176       NO       
     PART-1-1.38177       NO       
     PART-1-1.38178       NO       
     PART-1-1.38179       NO       
     PART-1-1.38180       NO       
     PART-1-1.38181       NO       
     PART-1-1.38182       NO       
     PART-1-1.38183       NO       
     PART-1-1.38184       NO       
     PART-1-1.38185       NO       
     PART-1-1.38186       NO       
     PART-1-1.38187       NO       
     PART-1-1.38188       NO       
     PART-1-1.38189       NO       
     PART-1-1.38190       NO       
     PART-1-1.38191       NO       
     PART-1-1.38192       NO       
     PART-1-1.38193       NO       
     PART-1-1.38194       NO       
     PART-1-1.38195       NO       
     PART-1-1.38196       NO       
     PART-1-1.38197       NO       
     PART-1-1.38198       NO       
     PART-1-1.38199       NO       
     PART-1-1.38200       NO       
     PART-1-1.38201       NO       
     PART-1-1.38202       NO       
     PART-1-1.38203       NO       
     PART-1-1.38204       NO       
     PART-1-1.38205       NO       
     PART-1-1.38206       NO       
     PART-1-1.38207       NO       
     PART-1-1.38208       NO       
     PART-1-1.38209       NO       
     PART-1-1.38210       NO       
     PART-1-1.38211       NO       
     PART-1-1.38212       NO       
     PART-1-1.38213       NO       
     PART-1-1.38214       NO       
     PART-1-1.38215       NO       
     PART-1-1.38216       NO       
     PART-1-1.38217       NO       
     PART-1-1.38218       NO       
     PART-1-1.38219       NO       
     PART-1-1.38220       NO       
     PART-1-1.38221       NO       
     PART-1-1.38222       NO       
     PART-1-1.38223       NO       
     PART-1-1.38224       NO       
     PART-1-1.38225       NO       
     PART-1-1.38226       NO       
     PART-1-1.38227       NO       
     PART-1-1.38228       NO       
     PART-1-1.38229       NO       
     PART-1-1.38230       NO       
     PART-1-1.38231       NO       
     PART-1-1.38232       NO       
     PART-1-1.38233       NO       
     PART-1-1.38234       NO       
     PART-1-1.38235       NO       
     PART-1-1.38236       NO       
     PART-1-1.38237       NO       
     PART-1-1.38238       NO       
     PART-1-1.38239       NO       
     PART-1-1.38240       NO       
     PART-1-1.38241       NO       
     PART-1-1.38242       NO       
     PART-1-1.38243       NO       
     PART-1-1.38244       NO       
     PART-1-1.38245       NO       
     PART-1-1.38246       NO       
     PART-1-1.38247       NO       
     PART-1-1.38248       NO       
     PART-1-1.38249       NO       
     PART-1-1.38250       NO       
     PART-1-1.38251       NO       
     PART-1-1.38252       NO       
     PART-1-1.38253       NO       
     PART-1-1.38254       NO       
     PART-1-1.38255       NO       
     PART-1-1.38256       NO       
     PART-1-1.38257       NO       
     PART-1-1.38258       NO       
     PART-1-1.38259       NO       
     PART-1-1.38260       NO       
     PART-1-1.38261       NO       
     PART-1-1.38262       NO       
     PART-1-1.38263       NO       
     PART-1-1.38264       NO       
     PART-1-1.38265       NO       
     PART-1-1.38266       NO       
     PART-1-1.38267       NO       
     PART-1-1.38268       NO       
     PART-1-1.38269       NO       
     PART-1-1.38270       NO       
     PART-1-1.38271       NO       
     PART-1-1.38272       NO       
     PART-1-1.38273       NO       
     PART-1-1.38274       NO       
     PART-1-1.38275       NO       
     PART-1-1.38276       NO       
     PART-1-1.38277       NO       
     PART-1-1.38278       NO       
     PART-1-1.38279       NO       
     PART-1-1.38280       NO       
     PART-1-1.38281       NO       
     PART-1-1.38282       NO       
     PART-1-1.38283       NO       
     PART-1-1.38284       NO       
     PART-1-1.38285       NO       
     PART-1-1.38286       NO       
     PART-1-1.38287       NO       
     PART-1-1.38288       NO       
     PART-1-1.38289       NO       
     PART-1-1.38290       NO       
     PART-1-1.38291       NO       
     PART-1-1.38292       NO       
     PART-1-1.38293       NO       
     PART-1-1.38294       NO       
     PART-1-1.38295       NO       
     PART-1-1.38296       NO       
     PART-1-1.38297       NO       
     PART-1-1.38298       NO       
     PART-1-1.38299       NO       
     PART-1-1.38300       NO       
     PART-1-1.38301       NO       
     PART-1-1.38302       NO       
     PART-1-1.38303       NO       
     PART-1-1.38304       NO       
     PART-1-1.38305       NO       
     PART-1-1.38306       NO       
     PART-1-1.38307       NO       
     PART-1-1.38308       NO       
     PART-1-1.38309       NO       
     PART-1-1.38310       NO       
     PART-1-1.38311       NO       
     PART-1-1.38312       NO       
     PART-1-1.38313       NO       
     PART-1-1.38314       NO       
     PART-1-1.38315       NO       
     PART-1-1.38316       NO       
     PART-1-1.38317       NO       
     PART-1-1.38318       NO       
     PART-1-1.38319       NO       
     PART-1-1.38320       NO       
     PART-1-1.38321       NO       
     PART-1-1.38322       NO       
     PART-1-1.38323       NO       
     PART-1-1.38324       NO       
     PART-1-1.38325       NO       
     PART-1-1.38326       NO       
     PART-1-1.38327       NO       
     PART-1-1.38328       NO       
     PART-1-1.38329       NO       
     PART-1-1.38330       NO       
     PART-1-1.38331       NO       
     PART-1-1.38332       NO       
     PART-1-1.38333       NO       
     PART-1-1.38334       NO       
     PART-1-1.38335       NO       
     PART-1-1.38336       NO       
     PART-1-1.38337       NO       
     PART-1-1.38338       NO       
     PART-1-1.38339       NO       
     PART-1-1.38340       NO       
     PART-1-1.38341       NO       
     PART-1-1.38342       NO       
     PART-1-1.38343       NO       
     PART-1-1.38344       NO       
     PART-1-1.38345       NO       
     PART-1-1.38346       NO       
     PART-1-1.38347       NO       
     PART-1-1.38348       NO       
     PART-1-1.38349       NO       
     PART-1-1.38350       NO       
     PART-1-1.38351       NO       
     PART-1-1.38352       NO       
     PART-1-1.38353       NO       
     PART-1-1.38354       NO       
     PART-1-1.38355       NO       
     PART-1-1.38356       NO       
     PART-1-1.38357       NO       
     PART-1-1.38358       NO       
     PART-1-1.38359       NO       
     PART-1-1.38360       NO       
     PART-1-1.38361       NO       
     PART-1-1.38362       NO       
     PART-1-1.38363       NO       
     PART-1-1.38364       NO       
     PART-1-1.38365       NO       
     PART-1-1.38366       NO       
     PART-1-1.38367       NO       
     PART-1-1.38368       NO       
     PART-1-1.38369       NO       
     PART-1-1.38370       NO       
     PART-1-1.38371       NO       
     PART-1-1.38372       NO       
     PART-1-1.38373       NO       
     PART-1-1.38374       NO       
     PART-1-1.38375       NO       
     PART-1-1.38376       NO       
     PART-1-1.38377       NO       
     PART-1-1.38378       NO       
     PART-1-1.38379       NO       
     PART-1-1.38380       NO       
     PART-1-1.38381       NO       
     PART-1-1.38382       NO       
     PART-1-1.38383       NO       
     PART-1-1.38384       NO       
     PART-1-1.38385       NO       
     PART-1-1.38386       NO       
     PART-1-1.38387       NO       
     PART-1-1.38388       NO       
     PART-1-1.38389       NO       
     PART-1-1.38390       NO       
     PART-1-1.38391       NO       
     PART-1-1.38392       NO       
     PART-1-1.38393       NO       
     PART-1-1.38394       NO       
     PART-1-1.38395       NO       
     PART-1-1.38396       NO       
     PART-1-1.38397       NO       
     PART-1-1.38398       NO       
     PART-1-1.38399       NO       
     PART-1-1.38400       NO       
     PART-1-1.38401       NO       
     PART-1-1.38402       NO       
     PART-1-1.38403       NO       
     PART-1-1.38404       NO       
     PART-1-1.38405       NO       
     PART-1-1.38406       NO       
     PART-1-1.38407       NO       
     PART-1-1.38408       NO       
     PART-1-1.38409       NO       
     PART-1-1.38410       NO       
     PART-1-1.38411       NO       
     PART-1-1.38412       NO       
     PART-1-1.38413       NO       
     PART-1-1.38414       NO       
     PART-1-1.38415       NO       
     PART-1-1.38416       NO       
     PART-1-1.38417       NO       
     PART-1-1.38418       NO       
     PART-1-1.38419       NO       
     PART-1-1.38420       NO       
     PART-1-1.38421       NO       
     PART-1-1.38422       NO       
     PART-1-1.38423       NO       
     PART-1-1.38424       NO       
     PART-1-1.38425       NO       
     PART-1-1.38426       NO       
     PART-1-1.38427       NO       
     PART-1-1.38428       NO       
     PART-1-1.38429       NO       
     PART-1-1.38430       NO       
     PART-1-1.38431       NO       
     PART-1-1.38432       NO       
     PART-1-1.38433       NO       
     PART-1-1.38434       NO       
     PART-1-1.38435       NO       
     PART-1-1.38436       NO       
     PART-1-1.38437       NO       
     PART-1-1.38438       NO       
     PART-1-1.38439       NO       
     PART-1-1.38440       NO       
     PART-1-1.38441       NO       
     PART-1-1.38442       NO       
     PART-1-1.38443       NO       
     PART-1-1.38444       NO       
     PART-1-1.38445       NO       
     PART-1-1.38446       NO       
     PART-1-1.38447       NO       
     PART-1-1.38448       NO       
     PART-1-1.38449       NO       
     PART-1-1.38450       NO       
     PART-1-1.38451       NO       
     PART-1-1.38452       NO       
     PART-1-1.38453       NO       
     PART-1-1.38454       NO       
     PART-1-1.38455       NO       
     PART-1-1.38456       NO       
     PART-1-1.38457       NO       
     PART-1-1.38458       NO       
     PART-1-1.38459       NO       
     PART-1-1.38460       NO       
     PART-1-1.38461       NO       
     PART-1-1.38462       NO       
     PART-1-1.38463       NO       
     PART-1-1.38464       NO       
     PART-1-1.38465       NO       
     PART-1-1.38466       NO       
     PART-1-1.38467       NO       
     PART-1-1.38468       NO       
     PART-1-1.38469       NO       
     PART-1-1.38470       NO       
     PART-1-1.38471       NO       
     PART-1-1.38472       NO       
     PART-1-1.38473       NO       
     PART-1-1.38474       NO       
     PART-1-1.38475       NO       
     PART-1-1.38476       NO       
     PART-1-1.38477       NO       
     PART-1-1.38478       NO       
     PART-1-1.38479       NO       
     PART-1-1.38480       NO       
     PART-1-1.38481       NO       
     PART-1-1.38482       NO       
     PART-1-1.38483       NO       
     PART-1-1.38484       NO       
     PART-1-1.38485       NO       
     PART-1-1.38486       NO       
     PART-1-1.38487       NO       
     PART-1-1.38488       NO       
     PART-1-1.38489       NO       
     PART-1-1.38490       NO       
     PART-1-1.38491       NO       
     PART-1-1.38492       NO       
     PART-1-1.38493       NO       
     PART-1-1.38494       NO       
     PART-1-1.38495       NO       
     PART-1-1.38496       NO       
     PART-1-1.38497       NO       
     PART-1-1.38498       NO       
     PART-1-1.38499       NO       
     PART-1-1.38500       NO       
     PART-1-1.38501       NO       
     PART-1-1.38502       NO       
     PART-1-1.38503       NO       
     PART-1-1.38504       NO       
     PART-1-1.38505       NO       
     PART-1-1.38506       NO       
     PART-1-1.38507       NO       
     PART-1-1.38508       NO       
     PART-1-1.38509       NO       
     PART-1-1.38510       NO       
     PART-1-1.38511       NO       
     PART-1-1.38512       NO       
     PART-1-1.38513       NO       
     PART-1-1.38514       NO       
     PART-1-1.38515       NO       
     PART-1-1.38516       NO       
     PART-1-1.38517       NO       
     PART-1-1.38518       NO       
     PART-1-1.38519       NO       
     PART-1-1.38520       NO       
     PART-1-1.38521       NO       
     PART-1-1.38522       NO       
     PART-1-1.38523       NO       
     PART-1-1.38524       NO       
     PART-1-1.38525       NO       
     PART-1-1.38526       NO       
     PART-1-1.38527       NO       
     PART-1-1.38528       NO       
     PART-1-1.38529       NO       
     PART-1-1.38530       NO       
     PART-1-1.38531       NO       
     PART-1-1.38532       NO       
     PART-1-1.38533       NO       
     PART-1-1.38534       NO       
     PART-1-1.38535       NO       
     PART-1-1.38536       NO       
     PART-1-1.38537       NO       
     PART-1-1.38538       NO       
     PART-1-1.38539       NO       
     PART-1-1.38540       NO       
     PART-1-1.38541       NO       
     PART-1-1.38542       NO       
     PART-1-1.38543       NO       
     PART-1-1.38544       NO       
     PART-1-1.38545       NO       
     PART-1-1.38546       NO       
     PART-1-1.38547       NO       
     PART-1-1.38548       NO       
     PART-1-1.38549       NO       
     PART-1-1.38550       NO       
     PART-1-1.38551       NO       
     PART-1-1.38552       NO       
     PART-1-1.38553       NO       
     PART-1-1.38554       NO       
     PART-1-1.38555       NO       
     PART-1-1.38556       NO       
     PART-1-1.38557       NO       
     PART-1-1.38558       NO       
     PART-1-1.38559       NO       
     PART-1-1.38560       NO       
     PART-1-1.38561       NO       
     PART-1-1.38562       NO       
     PART-1-1.38563       NO       
     PART-1-1.38564       NO       
     PART-1-1.38565       NO       
     PART-1-1.38566       NO       
     PART-1-1.38567       NO       
     PART-1-1.38568       NO       
     PART-1-1.38569       NO       
     PART-1-1.38570       NO       
     PART-1-1.38571       NO       
     PART-1-1.38572       NO       
     PART-1-1.38573       NO       
     PART-1-1.38574       NO       
     PART-1-1.38575       NO       
     PART-1-1.38576       NO       
     PART-1-1.38577       NO       
     PART-1-1.38578       NO       
     PART-1-1.38579       NO       
     PART-1-1.38580       NO       
     PART-1-1.38581       NO       
     PART-1-1.38582       NO       
     PART-1-1.38583       NO       
     PART-1-1.38584       NO       
     PART-1-1.38585       NO       
     PART-1-1.38586       NO       
     PART-1-1.38587       NO       
     PART-1-1.38588       NO       
[...]
    PART-1-1.136534       NO       
    PART-1-1.136535       NO       
    PART-1-1.136536       NO       
    PART-1-1.136537       NO       
    PART-1-1.136538       NO       
    PART-1-1.136539       NO       
    PART-1-1.136540       NO       
    PART-1-1.136541       NO       
    PART-1-1.136542       NO       
    PART-1-1.136543       NO       
    PART-1-1.136544       NO       
    PART-1-1.136545       NO       
    PART-1-1.136546       NO       
    PART-1-1.136547       NO       
    PART-1-1.136548       NO       
    PART-1-1.136549       NO       
    PART-1-1.136550       NO       
    PART-1-1.136551       NO       
    PART-1-1.136552       NO       
    PART-1-1.136553       NO       
    PART-1-1.136554       NO       
    PART-1-1.136555       NO       
    PART-1-1.136556       NO       
    PART-1-1.136557       NO       
    PART-1-1.136558       NO       
    PART-1-1.136559       NO       
    PART-1-1.136560       NO       
    PART-1-1.136561       NO       
    PART-1-1.136562       NO       
    PART-1-1.136563       NO       
    PART-1-1.136564       NO       
    PART-1-1.136565       NO       
    PART-1-1.136566       NO       
    PART-1-1.136567       NO       
    PART-1-1.136568       NO       
    PART-1-1.136569       NO       
    PART-1-1.136570       NO       
    PART-1-1.136571       NO       
    PART-1-1.136572       NO       
    PART-1-1.136573       NO       
    PART-1-1.136574       NO       
    PART-1-1.136575       NO       
    PART-1-1.136576       NO       
    PART-1-1.136577       NO       
    PART-1-1.136578       NO       
    PART-1-1.136579       NO       
    PART-1-1.136580       NO       
    PART-1-1.136581       NO       
    PART-1-1.136582       NO       
    PART-1-1.136583       NO       
    PART-1-1.136584       NO       
    PART-1-1.136585       NO       
    PART-1-1.136586       NO       
    PART-1-1.136587       NO       
    PART-1-1.136588       NO       
    PART-1-1.136589       NO       
    PART-1-1.136590       NO       
    PART-1-1.136591       NO       
    PART-1-1.136592       NO       
    PART-1-1.136593       NO       
    PART-1-1.136594       NO       
    PART-1-1.136595       NO       
    PART-1-1.136596       NO       
    PART-1-1.136597       NO       
    PART-1-1.136598       NO       
    PART-1-1.136599       NO       
    PART-1-1.136600       NO       
    PART-1-1.136601       NO       
    PART-1-1.136602       NO       
    PART-1-1.136603       NO       
    PART-1-1.136604       NO       
    PART-1-1.136605       NO       
    PART-1-1.136606       NO       
    PART-1-1.136607       NO       
    PART-1-1.136608       NO       
    PART-1-1.136609       NO       
    PART-1-1.136610       NO       
    PART-1-1.136611       NO       
    PART-1-1.136612       NO       
    PART-1-1.136613       NO       
    PART-1-1.136614       NO       
    PART-1-1.136615       NO       
    PART-1-1.136616       NO       
    PART-1-1.136617       NO       
    PART-1-1.136618       NO       
    PART-1-1.136619       NO       
    PART-1-1.136620       NO       
    PART-1-1.136621       NO       
    PART-1-1.136622       NO       
    PART-1-1.136623       NO       
    PART-1-1.136624       NO       
    PART-1-1.136625       NO       
    PART-1-1.136626       NO       
    PART-1-1.136627       NO       
    PART-1-1.136628       NO       
    PART-1-1.136629       NO       
    PART-1-1.136630       NO       
    PART-1-1.136631       NO       
    PART-1-1.136632       NO       
    PART-1-1.136633       NO       
    PART-1-1.136634       NO       
    PART-1-1.136635       NO       
    PART-1-1.136636       NO       
    PART-1-1.136637       NO       
    PART-1-1.136638       NO       
    PART-1-1.136639       NO       
    PART-1-1.136640       NO       
    PART-1-1.136641       NO       
    PART-1-1.136642       NO       
    PART-1-1.136643       NO       
    PART-1-1.136644       NO       
    PART-1-1.136645       NO       
    PART-1-1.136646       NO       
    PART-1-1.136647       NO       
    PART-1-1.136648       NO       
    PART-1-1.136649       NO       
    PART-1-1.136650       NO       
    PART-1-1.136651       NO       
    PART-1-1.136652       NO       
    PART-1-1.136653       NO       
    PART-1-1.136654       NO       
    PART-1-1.136655       NO       
    PART-1-1.136656       NO       
    PART-1-1.136657       NO       
    PART-1-1.136658       NO       
    PART-1-1.136659       NO       
    PART-1-1.136660       NO       
    PART-1-1.136661       NO       
    PART-1-1.136662       NO       
    PART-1-1.136663       NO       
    PART-1-1.136664       NO       
    PART-1-1.136665       NO       
    PART-1-1.136666       NO       
    PART-1-1.136667       NO       
    PART-1-1.136668       NO       
    PART-1-1.136669       NO       
    PART-1-1.136670       NO       
    PART-1-1.136671       NO       
    PART-1-1.136672       NO       
    PART-1-1.136673       NO       
    PART-1-1.136674       NO       
    PART-1-1.136675       NO       
    PART-1-1.136676       NO       
    PART-1-1.136677       NO       
    PART-1-1.136678       NO       
    PART-1-1.136679       NO       
    PART-1-1.136680       NO       
  
  
  *Step, name="Achieve Equilibrium", nlgeom=NO
  *output, field, variable=PRESELECT
  *output, history, variable=PRESELECT
  *Step, name=Cut, nlgeom=NO
  *output, field, variable=PRESELECT
  *output, history, variable=PRESELECT
  *Step, name="Achieve Equilibirum 2", nlgeom=NO
  *output, field, variable=PRESELECT
  *output, history, variable=PRESELECT
  *Step, name="Achieve Equilibrium", nlgeom=NO
  *Step, name=Cut, nlgeom=NO
  *Step, name="Achieve Equilibirum 2", nlgeom=NO
  *Step, name="Achieve Equilibrium", nlgeom=NO
  *static
  *output, field, variable=PRESELECT
  *output, history, variable=PRESELECT
  *endstep
  *Step, name=Cut, nlgeom=NO
  *static
  *modelchange, remove
  *modelchange, remove
  *output, field, variable=PRESELECT
  *output, history, variable=PRESELECT
  *endstep
  *Step, name="Achieve Equilibirum 2", nlgeom=NO
  *static
  *output, field, variable=PRESELECT
  *output, history, variable=PRESELECT
  *endstep
  *Step, name="Achieve Equilibrium", nlgeom=NO
  *static
  *endstep
  *Step, name=Cut, nlgeom=NO
  *static
  *endstep
  *Step, name="Achieve Equilibirum 2", nlgeom=NO
  *static
  *endstep



                            P R O B L E M   S I Z E


          NUMBER OF ELEMENTS IS                                136680
          NUMBER OF NODES IS                                   148470
          NUMBER OF NODES DEFINED BY THE USER                  148470
          TOTAL NUMBER OF VARIABLES IN THE MODEL               445410
          (DEGREES OF FREEDOM PLUS MAX NO. OF ANY LAGRANGE MULTIPLIER
           VARIABLES. INCLUDE *PRINT,SOLVE=YES TO GET THE ACTUAL NUMBER.)



                              END OF USER INPUT PROCESSING



     JOB TIME SUMMARY
       USER TIME (SEC)      =   6.4000    
       SYSTEM TIME (SEC)    =   1.3000    
       TOTAL CPU TIME (SEC) =   7.7000    
       WALLCLOCK TIME (SEC) =         12
1

   Abaqus 2022                                  Date 14-Apr-2023   Time 16:57:25
   For use by UNIVERSITY OF MICHIGAN under license from Dassault Systemes or its subsidiary.

                                                                                               STEP    1  INCREMENT    1
                                                                                          TIME COMPLETED IN THIS STEP   0.00    


                        S T E P       1     S T A T I C   A N A L Y S I S


                                                                                          

     AUTOMATIC TIME CONTROL WITH -
          A SUGGESTED INITIAL TIME INCREMENT OF                 1.00    
          AND A TOTAL TIME PERIOD OF                            1.00    
          THE MINIMUM TIME INCREMENT ALLOWED IS                1.000E-05
          THE MAXIMUM TIME INCREMENT ALLOWED IS                 1.00    

     LINEAR EQUATION SOLVER TYPE         DIRECT SPARSE
  
                   M E M O R Y   E S T I M A T E
  
 PROCESS      FLOATING PT       MINIMUM MEMORY        MEMORY TO
              OPERATIONS           REQUIRED          MINIMIZE I/O
             PER ITERATION           (MB)               (MB)
  
     1          1.29E+12              503               5077
  
 NOTE:
      (1) SINCE ABAQUS DOES NOT PRE-ALLOCATE MEMORY AND ONLY ALLOCATES MEMORY AS NEEDED DURING THE ANALYSIS,
          THE MEMORY REQUIREMENT PRINTED HERE CAN ONLY BE VIEWED AS A GENERAL GUIDELINE BASED ON THE BEST
          KNOWLEDGE AVAILABLE AT THE BEGINNING OF A STEP BEFORE THE SOLUTION PROCESS HAS BEGUN.
      (2) THE ESTIMATE IS NORMALLY UPDATED AT THE BEGINNING OF EVERY STEP. IT IS THE MAXIMUM VALUE OF THE
          ESTIMATE FROM THE CURRENT STEP TO THE LAST STEP OF THE ANALYSIS, WITH UNSYMMETRIC SOLUTION TAKEN
          INTO ACCOUNT IF APPLICABLE. 
      (3) SINCE THE ESTIMATE IS BASED ON THE ACTIVE DEGREES OF FREEDOM IN THE FIRST ITERATION OF THE 
          CURRENT STEP, THE MEMORY ESTIMATE MIGHT BE SIGNIFICANTLY DIFFERENT THAN ACTUAL USAGE FOR 
          PROBLEMS WITH SUBSTANTIAL CHANGES IN ACTIVE DEGREES OF FREEDOM BETWEEN STEPS (OR EVEN WITHIN
          THE SAME STEP). EXAMPLES ARE: PROBLEMS WITH SIGNIFICANT CONTACT CHANGES, PROBLEMS WITH MODEL
          CHANGE, PROBLEMS WITH BOTH STATIC STEP AND STEADY STATE DYNAMIC PROCEDURES WHERE ACOUSTIC 
          ELEMENTS WILL ONLY BE ACTIVATED IN THE STEADY STATE DYNAMIC STEPS.
      (4) FOR MULTI-PROCESS EXECUTION, THE ESTIMATED VALUE OF FLOATING POINT OPERATIONS FOR EACH PROCESS
          IS BASED ON AN INITIAL SCHEDULING OF OPERATIONS AND MIGHT NOT REFLECT THE ACTUAL FLOATING 
          POINT OPERATIONS COMPLETED ON EACH PROCESS. OPERATIONS ARE DYNAMICALLY BALANCED DURING EXECUTION, 
          SO THE ACTUAL BALANCE OF OPERATIONS BETWEEN PROCESSES IS EXPECTED TO BE BETTER THAN THE ESTIMATE
          PRINTED HERE.
      (5) THE UPPER LIMIT OF MEMORY THAT CAN BE ALLOCATED BY ABAQUS WILL IN GENERAL DEPEND ON THE VALUE OF
          THE "MEMORY" PARAMETER AND THE AMOUNT OF PHYSICAL MEMORY AVAILABLE ON THE MACHINE. PLEASE SEE
          THE "ABAQUS ANALYSIS USER'S MANUAL" FOR MORE DETAILS. THE ACTUAL USAGE OF MEMORY AND OF DISK
          SPACE FOR SCRATCH DATA WILL DEPEND ON THIS UPPER LIMIT AS WELL AS THE MEMORY REQUIRED TO MINIMIZE
          I/O. IF THE MEMORY UPPER LIMIT IS GREATER THAN THE MEMORY REQUIRED TO MINIMIZE I/O, THEN THE ACTUAL
          MEMORY USAGE WILL BE CLOSE TO THE ESTIMATED "MEMORY TO MINIMIZE I/O" VALUE, AND THE SCRATCH DISK
          USAGE WILL BE CLOSE-TO-ZERO; OTHERWISE, THE ACTUAL MEMORY USED WILL BE CLOSE TO THE PREVIOUSLY
          MENTIONED MEMORY LIMIT, AND THE SCRATCH DISK USAGE WILL BE ROUGHLY PROPORTIONAL TO THE DIFFERENCE
          BETWEEN THE ESTIMATED "MEMORY TO MINIMIZE I/O" AND THE MEMORY UPPER LIMIT. HOWEVER ACCURATE
          ESTIMATE OF THE SCRATCH DISK SPACE IS NOT POSSIBLE.
      (6) USING "*RESTART, WRITE" CAN GENERATE A LARGE AMOUNT OF DATA WRITTEN IN THE WORK DIRECTORY.
1

   Abaqus 2022                                  Date 14-Apr-2023   Time 16:58:26
   For use by UNIVERSITY OF MICHIGAN under license from Dassault Systemes or its subsidiary.

                                                                                               STEP    2  INCREMENT    1
                                                                                          TIME COMPLETED IN THIS STEP   0.00    


                        S T E P       2     S T A T I C   A N A L Y S I S


                                                                                          

     AUTOMATIC TIME CONTROL WITH -
          A SUGGESTED INITIAL TIME INCREMENT OF                 1.00    
          AND A TOTAL TIME PERIOD OF                            1.00    
          THE MINIMUM TIME INCREMENT ALLOWED IS                1.000E-05
          THE MAXIMUM TIME INCREMENT ALLOWED IS                 1.00    

     LINEAR EQUATION SOLVER TYPE         DIRECT SPARSE
  
                   M E M O R Y   E S T I M A T E
  
 PROCESS      FLOATING PT       MINIMUM MEMORY        MEMORY TO
              OPERATIONS           REQUIRED          MINIMIZE I/O
             PER ITERATION           (MB)               (MB)
  
     1          1.21E+12              482               4935
  
 NOTE:
      (1) SINCE ABAQUS DOES NOT PRE-ALLOCATE MEMORY AND ONLY ALLOCATES MEMORY AS NEEDED DURING THE ANALYSIS,
          THE MEMORY REQUIREMENT PRINTED HERE CAN ONLY BE VIEWED AS A GENERAL GUIDELINE BASED ON THE BEST
          KNOWLEDGE AVAILABLE AT THE BEGINNING OF A STEP BEFORE THE SOLUTION PROCESS HAS BEGUN.
      (2) THE ESTIMATE IS NORMALLY UPDATED AT THE BEGINNING OF EVERY STEP. IT IS THE MAXIMUM VALUE OF THE
          ESTIMATE FROM THE CURRENT STEP TO THE LAST STEP OF THE ANALYSIS, WITH UNSYMMETRIC SOLUTION TAKEN
          INTO ACCOUNT IF APPLICABLE. 
      (3) SINCE THE ESTIMATE IS BASED ON THE ACTIVE DEGREES OF FREEDOM IN THE FIRST ITERATION OF THE 
          CURRENT STEP, THE MEMORY ESTIMATE MIGHT BE SIGNIFICANTLY DIFFERENT THAN ACTUAL USAGE FOR 
          PROBLEMS WITH SUBSTANTIAL CHANGES IN ACTIVE DEGREES OF FREEDOM BETWEEN STEPS (OR EVEN WITHIN
          THE SAME STEP). EXAMPLES ARE: PROBLEMS WITH SIGNIFICANT CONTACT CHANGES, PROBLEMS WITH MODEL
          CHANGE, PROBLEMS WITH BOTH STATIC STEP AND STEADY STATE DYNAMIC PROCEDURES WHERE ACOUSTIC 
          ELEMENTS WILL ONLY BE ACTIVATED IN THE STEADY STATE DYNAMIC STEPS.
      (4) FOR MULTI-PROCESS EXECUTION, THE ESTIMATED VALUE OF FLOATING POINT OPERATIONS FOR EACH PROCESS
          IS BASED ON AN INITIAL SCHEDULING OF OPERATIONS AND MIGHT NOT REFLECT THE ACTUAL FLOATING 
          POINT OPERATIONS COMPLETED ON EACH PROCESS. OPERATIONS ARE DYNAMICALLY BALANCED DURING EXECUTION, 
          SO THE ACTUAL BALANCE OF OPERATIONS BETWEEN PROCESSES IS EXPECTED TO BE BETTER THAN THE ESTIMATE
          PRINTED HERE.
      (5) THE UPPER LIMIT OF MEMORY THAT CAN BE ALLOCATED BY ABAQUS WILL IN GENERAL DEPEND ON THE VALUE OF
          THE "MEMORY" PARAMETER AND THE AMOUNT OF PHYSICAL MEMORY AVAILABLE ON THE MACHINE. PLEASE SEE
          THE "ABAQUS ANALYSIS USER'S MANUAL" FOR MORE DETAILS. THE ACTUAL USAGE OF MEMORY AND OF DISK
          SPACE FOR SCRATCH DATA WILL DEPEND ON THIS UPPER LIMIT AS WELL AS THE MEMORY REQUIRED TO MINIMIZE
          I/O. IF THE MEMORY UPPER LIMIT IS GREATER THAN THE MEMORY REQUIRED TO MINIMIZE I/O, THEN THE ACTUAL
          MEMORY USAGE WILL BE CLOSE TO THE ESTIMATED "MEMORY TO MINIMIZE I/O" VALUE, AND THE SCRATCH DISK
          USAGE WILL BE CLOSE-TO-ZERO; OTHERWISE, THE ACTUAL MEMORY USED WILL BE CLOSE TO THE PREVIOUSLY
          MENTIONED MEMORY LIMIT, AND THE SCRATCH DISK USAGE WILL BE ROUGHLY PROPORTIONAL TO THE DIFFERENCE
          BETWEEN THE ESTIMATED "MEMORY TO MINIMIZE I/O" AND THE MEMORY UPPER LIMIT. HOWEVER ACCURATE
          ESTIMATE OF THE SCRATCH DISK SPACE IS NOT POSSIBLE.
      (6) USING "*RESTART, WRITE" CAN GENERATE A LARGE AMOUNT OF DATA WRITTEN IN THE WORK DIRECTORY.
1

   Abaqus 2022                                  Date 14-Apr-2023   Time 16:59:18
   For use by UNIVERSITY OF MICHIGAN under license from Dassault Systemes or its subsidiary.

                                                                                               STEP    3  INCREMENT    1
                                                                                          TIME COMPLETED IN THIS STEP   0.00    


                        S T E P       3     S T A T I C   A N A L Y S I S


                                                                                          

     AUTOMATIC TIME CONTROL WITH -
          A SUGGESTED INITIAL TIME INCREMENT OF                 1.00    
          AND A TOTAL TIME PERIOD OF                            1.00    
          THE MINIMUM TIME INCREMENT ALLOWED IS                1.000E-05
          THE MAXIMUM TIME INCREMENT ALLOWED IS                 1.00    

     LINEAR EQUATION SOLVER TYPE         DIRECT SPARSE
  
                   M E M O R Y   E S T I M A T E
  
 PROCESS      FLOATING PT       MINIMUM MEMORY        MEMORY TO
              OPERATIONS           REQUIRED          MINIMIZE I/O
             PER ITERATION           (MB)               (MB)
  
     1          1.21E+12              482               4935
  
 NOTE:
      (1) SINCE ABAQUS DOES NOT PRE-ALLOCATE MEMORY AND ONLY ALLOCATES MEMORY AS NEEDED DURING THE ANALYSIS,
          THE MEMORY REQUIREMENT PRINTED HERE CAN ONLY BE VIEWED AS A GENERAL GUIDELINE BASED ON THE BEST
          KNOWLEDGE AVAILABLE AT THE BEGINNING OF A STEP BEFORE THE SOLUTION PROCESS HAS BEGUN.
      (2) THE ESTIMATE IS NORMALLY UPDATED AT THE BEGINNING OF EVERY STEP. IT IS THE MAXIMUM VALUE OF THE
          ESTIMATE FROM THE CURRENT STEP TO THE LAST STEP OF THE ANALYSIS, WITH UNSYMMETRIC SOLUTION TAKEN
          INTO ACCOUNT IF APPLICABLE. 
      (3) SINCE THE ESTIMATE IS BASED ON THE ACTIVE DEGREES OF FREEDOM IN THE FIRST ITERATION OF THE 
          CURRENT STEP, THE MEMORY ESTIMATE MIGHT BE SIGNIFICANTLY DIFFERENT THAN ACTUAL USAGE FOR 
          PROBLEMS WITH SUBSTANTIAL CHANGES IN ACTIVE DEGREES OF FREEDOM BETWEEN STEPS (OR EVEN WITHIN
          THE SAME STEP). EXAMPLES ARE: PROBLEMS WITH SIGNIFICANT CONTACT CHANGES, PROBLEMS WITH MODEL
          CHANGE, PROBLEMS WITH BOTH STATIC STEP AND STEADY STATE DYNAMIC PROCEDURES WHERE ACOUSTIC 
          ELEMENTS WILL ONLY BE ACTIVATED IN THE STEADY STATE DYNAMIC STEPS.
      (4) FOR MULTI-PROCESS EXECUTION, THE ESTIMATED VALUE OF FLOATING POINT OPERATIONS FOR EACH PROCESS
          IS BASED ON AN INITIAL SCHEDULING OF OPERATIONS AND MIGHT NOT REFLECT THE ACTUAL FLOATING 
          POINT OPERATIONS COMPLETED ON EACH PROCESS. OPERATIONS ARE DYNAMICALLY BALANCED DURING EXECUTION, 
          SO THE ACTUAL BALANCE OF OPERATIONS BETWEEN PROCESSES IS EXPECTED TO BE BETTER THAN THE ESTIMATE
          PRINTED HERE.
      (5) THE UPPER LIMIT OF MEMORY THAT CAN BE ALLOCATED BY ABAQUS WILL IN GENERAL DEPEND ON THE VALUE OF
          THE "MEMORY" PARAMETER AND THE AMOUNT OF PHYSICAL MEMORY AVAILABLE ON THE MACHINE. PLEASE SEE
          THE "ABAQUS ANALYSIS USER'S MANUAL" FOR MORE DETAILS. THE ACTUAL USAGE OF MEMORY AND OF DISK
          SPACE FOR SCRATCH DATA WILL DEPEND ON THIS UPPER LIMIT AS WELL AS THE MEMORY REQUIRED TO MINIMIZE
          I/O. IF THE MEMORY UPPER LIMIT IS GREATER THAN THE MEMORY REQUIRED TO MINIMIZE I/O, THEN THE ACTUAL
          MEMORY USAGE WILL BE CLOSE TO THE ESTIMATED "MEMORY TO MINIMIZE I/O" VALUE, AND THE SCRATCH DISK
          USAGE WILL BE CLOSE-TO-ZERO; OTHERWISE, THE ACTUAL MEMORY USED WILL BE CLOSE TO THE PREVIOUSLY
          MENTIONED MEMORY LIMIT, AND THE SCRATCH DISK USAGE WILL BE ROUGHLY PROPORTIONAL TO THE DIFFERENCE
          BETWEEN THE ESTIMATED "MEMORY TO MINIMIZE I/O" AND THE MEMORY UPPER LIMIT. HOWEVER ACCURATE
          ESTIMATE OF THE SCRATCH DISK SPACE IS NOT POSSIBLE.
      (6) USING "*RESTART, WRITE" CAN GENERATE A LARGE AMOUNT OF DATA WRITTEN IN THE WORK DIRECTORY.


          THE ANALYSIS HAS BEEN COMPLETED



                              ANALYSIS COMPLETE
                              WITH      1 WARNING MESSAGES ON THE DAT FILE



     JOB TIME SUMMARY
       USER TIME (SEC)      =   158.00    
       SYSTEM TIME (SEC)    =   5.4000    
       TOTAL CPU TIME (SEC) =   163.40    
       WALLCLOCK TIME (SEC) =        171
