*Heading
** Job name: first_plan Model name: Model-1
** Generated by: Abaqus/CAE 2024
*Preprint, echo=NO, model=NO, history=NO, contact=NO
**
** PARTS
**
*Part, name=Post_Tool_Pass_1
*End Part
**  
**
** ASSEMBLY
**
*Assembly, name=Assembly
**  
*Instance, name=Post_Tool_Pass_1, part=Post_Tool_Pass_1
*Node
      1,           0.,          10.,   91.0466156
      2,           0.,          10.,   88.9765778
      3,           0.,          10.,          40.
      4,           0.,          10.,           0.
      5,           0.,           0.,           0.
      6,           0.,           0.,         400.
      7,           0.,          10.,         400.
      8,           0.,          10.,         360.
      9,          40.,          10.,         360.
     10,          40.,          10.,         400.
     11,          40.,          10.,          40.
     12,          40.,          10.,           0.
     13,          40.,           0.,           0.
     14,          40.,           0.,         400.
     15,  0.377897829,          10.,   90.9406281
     16,  0.654143333,          10.,   90.9153976
     17,    0.8945207,          10.,   90.9386444
     18,   1.10409307,          10.,   90.9987869
     19,   1.33150351,          10.,   91.1090393
     20,   1.62265801,          10.,   91.3194199
** ... 952 like lines cut
*Element, type=C3D4
   1, 632, 633, 634, 635
   2,  13,  12, 636, 122
   3, 632, 637, 638, 639
   4, 640, 641, 642, 637
   5, 641, 642, 637, 632
   6, 632, 642, 637, 639
   7, 560, 643, 644, 645
   8, 646, 647, 648, 649
   9, 646, 649, 650, 651
  10, 649, 652, 653, 654
  11, 649, 655, 652, 656
  12, 640, 649, 657, 641
  13, 649, 658, 641, 659
  14, 660, 661, 587, 602
  15, 115, 662, 645, 604
  16, 663, 655, 653, 641
  17, 664, 665, 666, 667
  18, 664, 668, 663, 669
  19, 664, 665, 670, 666
  20, 671, 672, 658, 637
** ... 3609 like lines cut
*Nset, nset=simple_set, generate
   1,  972,    1
*Elset, elset=simple_set, generate
    1,  3629,     1
** Section: Section-1
*Solid Section, elset=simple_set, material=Material-1
,
*End Instance
**  
*Nset, nset=_PickedSet13, internal, instance=Post_Tool_Pass_1
   3,   4,  11,  12,  66, 121, 122, 123, 612
*Elset, elset=_PickedSet13, internal, instance=Post_Tool_Pass_1
  362, 1022, 1172, 2299, 2333, 2578, 2579, 2590
*Nset, nset=_PickedSet20, internal, instance=Post_Tool_Pass_1
   7,   8,   9,  10,  86, 103, 104, 105, 371
*Elset, elset=_PickedSet20, internal, instance=Post_Tool_Pass_1
  237, 1533, 1650, 1737, 1846, 1961, 1974, 2491
*End Assembly
** 
** MATERIALS
** 
*Material, name=Material-1
*Elastic
 1e+09, 0.3
** 
** BOUNDARY CONDITIONS
** 
** Name: Boundary_Condition_0 Type: Displacement/Rotation
*Boundary
_PickedSet13, 1, 1
_PickedSet13, 2, 2
_PickedSet13, 3, 3
_PickedSet13, 4, 4
_PickedSet13, 5, 5
_PickedSet13, 6, 6
** Name: Boundary_Condition_1 Type: Displacement/Rotation
*Boundary
_PickedSet20, 1, 1
_PickedSet20, 2, 2
_PickedSet20, 3, 3
_PickedSet20, 4, 4
_PickedSet20, 5, 5
_PickedSet20, 6, 6
** ----------------------------------------------------------------
** 
** STEP: Equilibrium
** 
*Initial Conditions, Type=Stress, User
*Step, name=Equilibrium, nlgeom=NO
*Static
1., 1., 1e-05, 1.
** 
** OUTPUT REQUESTS
** 
*Restart, write, frequency=0
** 
** FIELD OUTPUT: F-Output-1
** 
*Output, field, variable=PRESELECT
** 
** HISTORY OUTPUT: H-Output-1
** 
*Output, history, variable=PRESELECT
*End Step
