*Heading
** Job name: Job-1 Model name: Model-1
** Generated by: Abaqus/CAE 2023
*Preprint, echo=NO, model=NO, history=NO, contact=NO
**
** PARTS
**
*Part, name=Part-1
*End Part
**  
**
** ASSEMBLY
**
*Assembly, name=Assembly
**  
*Instance, name=Part-1-1, part=Part-1
*Node
      1,         -10.,         -10.,           5.
      2,         -10.,          -8.,           5.
      3,         -10.,          -6.,           5.
      4,         -10.,          -4.,           5.
      5,         -10.,          -2.,           5.
      6,         -10.,           0.,           5.
      7,         -10.,           2.,           5.
      8,         -10.,           4.,           5.
      9,         -10.,           6.,           5.
     10,         -10.,           8.,           5.
     11,         -10.,          10.,           5.
     12,         -10.,         -10.,   3.33333325
     13,         -10.,          -8.,   3.33333325
     14,         -10.,          -6.,   3.33333325
     15,         -10.,          -4.,   3.33333325
     16,         -10.,          -2.,   3.33333325
     17,         -10.,           0.,   3.33333325
     18,         -10.,           2.,   3.33333325
     19,         -10.,           4.,   3.33333325
     20,         -10.,           6.,   3.33333325
** ... 464 like lines cut
*Element, type=C3D8R
  1,  45,  46,  57,  56,   1,   2,  13,  12
  2,  46,  47,  58,  57,   2,   3,  14,  13
  3,  47,  48,  59,  58,   3,   4,  15,  14
  4,  48,  49,  60,  59,   4,   5,  16,  15
  5,  49,  50,  61,  60,   5,   6,  17,  16
  6,  50,  51,  62,  61,   6,   7,  18,  17
  7,  51,  52,  63,  62,   7,   8,  19,  18
  8,  52,  53,  64,  63,   8,   9,  20,  19
  9,  53,  54,  65,  64,   9,  10,  21,  20
 10,  54,  55,  66,  65,  10,  11,  22,  21
 11,  56,  57,  68,  67,  12,  13,  24,  23
 12,  57,  58,  69,  68,  13,  14,  25,  24
 13,  58,  59,  70,  69,  14,  15,  26,  25
 14,  59,  60,  71,  70,  15,  16,  27,  26
 15,  60,  61,  72,  71,  16,  17,  28,  27
 16,  61,  62,  73,  72,  17,  18,  29,  28
 17,  62,  63,  74,  73,  18,  19,  30,  29
 18,  63,  64,  75,  74,  19,  20,  31,  30
 19,  64,  65,  76,  75,  20,  21,  32,  31
 20,  65,  66,  77,  76,  21,  22,  33,  32
** ... 280 like lines cut
*Nset, nset=Set-1, generate
   1,  484,    1
*Elset, elset=Set-1, generate
   1,  300,    1
** Section: Section-1
*Solid Section, elset=Set-1, material=Material-1
,
*End Instance
**  
*Nset, nset=Set-1, instance=Part-1-1, generate
   1,  484,    1
*Elset, elset=_Surf-1_S1, internal, instance=Part-1-1, generate
 271,  300,    1
*Surface, type=ELEMENT, name=Surf-1
_Surf-1_S1, S1
*Elset, elset=_Surf-2_S3, internal, instance=Part-1-1
   1,   2,   3,   4,   5,   6,   7,   8,   9,  10,  31,  32,  33,  34,  35,  36
  37,  38,  39,  40,  61,  62,  63,  64,  65,  66,  67,  68,  69,  70,  91,  92
  93,  94,  95,  96,  97,  98,  99, 100, 121, 122, 123, 124, 125, 126, 127, 128
 129, 130, 151, 152, 153, 154, 155, 156, 157, 158, 159, 160, 181, 182, 183, 184
 185, 186, 187, 188, 189, 190, 211, 212, 213, 214, 215, 216, 217, 218, 219, 220
 241, 242, 243, 244, 245, 246, 247, 248, 249, 250, 271, 272, 273, 274, 275, 276
 277, 278, 279, 280
*Surface, type=ELEMENT, name=Surf-2
_Surf-2_S3, S3
*Elset, elset=_Surf-3_S4, internal, instance=Part-1-1, generate
  10,  300,   10
*Surface, type=ELEMENT, name=Surf-3
_Surf-3_S4, S4
** 
** INTEGRATED OUTPUT SECTIONS
** 
*Integrated Output Section, name=I-Section-1, surface=Surf-1, project orientation=NO
*Integrated Output Section, name=I-Section-2, surface=Surf-2, project orientation=NO
*Integrated Output Section, name=I-Section-3, surface=Surf-3, project orientation=NO
*End Assembly
** 
** MATERIALS
** 
*Material, name=Material-1
*Elastic
 1e+09, 0.3
** 
** BOUNDARY CONDITIONS
** 
** Name: BC-1 Type: Displacement/Rotation
*Boundary
Set-1, 1, 1
Set-1, 2, 2
Set-1, 3, 3
Set-1, 4, 4
Set-1, 5, 5
Set-1, 6, 6
** ----------------------------------------------------------------
** 
** STEP: Step-1
** 
*Initial Conditions, Type=Stress, User
*Step, name=Step-1, nlgeom=NO
*Static
1., 1., 1e-05, 1.
** 
** OUTPUT REQUESTS
** 
*Restart, write, frequency=0
** 
** FIELD OUTPUT: F-Output-1
** 
*Output, field, variable=PRESELECT
** 
** HISTORY OUTPUT: H-Output-2
** 
*Output, history
*Integrated Output, section=I-Section-1
SOF, SOM
** 
** HISTORY OUTPUT: H-Output-3
** 
*Integrated Output, section=I-Section-2
SOF, SOM
** 
** HISTORY OUTPUT: H-Output-4
** 
*Integrated Output, section=I-Section-3
SOF, SOM
** 
** HISTORY OUTPUT: H-Output-1
** 
*Output, history, variable=PRESELECT
*End Step
