*Heading
** Job name: job3 Model name: Model-1
** Generated by: Abaqus/CAE 2023
*Preprint, echo=NO, model=NO, history=NO, contact=NO
**
** PARTS
**
*Part, name=Part-1
*Node
      1,          15.,          15.,         200.
      2,          15.,          12.,         200.
      3,          15.,           9.,         200.
      4,          15.,           6.,         200.
      5,          15.,           3.,         200.
      6,          15.,           0.,         200.
      7,          15.,          15.,   196.993332
      8,          15.,          12.,    196.99765
      9,          15.,           9.,   197.001968
     10,          15.,           6.,   197.006287
     11,          15.,           3.,   197.010605
     12,          15.,           0.,   197.014923
     13,          15.,          15.,   193.986664
     14,          15.,          12.,     193.9953
     15,          15.,           9.,   194.003937
     16,          15.,           6.,   194.012573
     17,          15.,           3.,    194.02121
     18,          15.,           0.,   194.029846
     19,          15.,          15.,   190.979996
     20,          15.,          12.,    190.99295
** ... 2428 like lines cut
*Element, type=C3D8R
   1,  409,  410,  416,  415,    1,    2,    8,    7
   2,  410,  411,  417,  416,    2,    3,    9,    8
   3,  411,  412,  418,  417,    3,    4,   10,    9
   4,  412,  413,  419,  418,    4,    5,   11,   10
   5,  413,  414,  420,  419,    5,    6,   12,   11
   6,  415,  416,  422,  421,    7,    8,   14,   13
   7,  416,  417,  423,  422,    8,    9,   15,   14
   8,  417,  418,  424,  423,    9,   10,   16,   15
   9,  418,  419,  425,  424,   10,   11,   17,   16
  10,  419,  420,  426,  425,   11,   12,   18,   17
  11,  421,  422,  428,  427,   13,   14,   20,   19
  12,  422,  423,  429,  428,   14,   15,   21,   20
  13,  423,  424,  430,  429,   15,   16,   22,   21
  14,  424,  425,  431,  430,   16,   17,   23,   22
  15,  425,  426,  432,  431,   17,   18,   24,   23
  16,  427,  428,  434,  433,   19,   20,   26,   25
  17,  428,  429,  435,  434,   20,   21,   27,   26
  18,  429,  430,  436,  435,   21,   22,   28,   27
  19,  430,  431,  437,  436,   22,   23,   29,   28
  20,  431,  432,  438,  437,   23,   24,   30,   29
** ... 1655 like lines cut
*Nset, nset=Set-1, generate
    1,  2448,     1
*Elset, elset=Set-1, generate
    1,  1675,     1
** Section: Section-1
*Solid Section, elset=Set-1, material=Material-1
,
*End Part
**  
**
** ASSEMBLY
**
*Assembly, name=Assembly
**  
*Instance, name=Part-1-1, part=Part-1
*End Instance
**  
*Nset, nset=Set-1, instance=Part-1-1
    1,    2,    3,    4,    5,    6,  409,  410,  411,  412,  413,  414,  817,  818,  819,  820
  821,  822, 1225, 1226, 1227, 1228, 1229, 1230, 1633, 1634, 1635, 1636, 1637, 1638, 2041, 2042
 2043, 2044, 2045, 2046
*Elset, elset=Set-1, instance=Part-1-1
    1,    2,    3,    4,    5,  336,  337,  338,  339,  340,  671,  672,  673,  674,  675, 1006
 1007, 1008, 1009, 1010, 1341, 1342, 1343, 1344, 1345
*Elset, elset=_Surf_S6, internal, instance=Part-1-1
  301,  306,  311,  316,  321,  326,  331,  636,  641,  646,  651,  656,  661,  666,  971,  976
  981,  986,  991,  996, 1001, 1306, 1311, 1316, 1321, 1326, 1331, 1336, 1641, 1646, 1651, 1656
 1661, 1666, 1671
*Surface, type=ELEMENT, name=Surf
_Surf_S6, S6
*Elset, elset=_Surf-1_S6, internal, instance=Part-1-1
  301,  306,  311,  316,  321,  326,  331,  636,  641,  646,  651,  656,  661,  666,  971,  976
  981,  986,  991,  996, 1001, 1306, 1311, 1316, 1321, 1326, 1331, 1336, 1641, 1646, 1651, 1656
 1661, 1666, 1671
*Surface, type=ELEMENT, name=Surf-1
_Surf-1_S6, S6
*End Assembly
** 
** MATERIALS
** 
*Material, name=Material-1
*Elastic
 1e+11, 0.3
** 
** BOUNDARY CONDITIONS
** 
** Name: BC-1 Type: Displacement/Rotation
*Boundary
Set-1, 1, 1
Set-1, 2, 2
Set-1, 3, 3
Set-1, 4, 4
Set-1, 5, 5
Set-1, 6, 6
** ----------------------------------------------------------------
** 
** STEP: Apply_Force
** 
*Step, name=Apply_Force, nlgeom=NO
*Static
1., 1., 1e-05, 1.
** 
** LOADS
** 
** Name: surface_traction   Type: Surface traction
*Dsload
Surf, TRVEC, 2.5e+06, 0.57735, -0.57735, 0.57735
** 
** OUTPUT REQUESTS
** 
*Restart, write, frequency=0
** 
** FIELD OUTPUT: F-Output-1
** 
*Output, field, variable=PRESELECT
** 
** HISTORY OUTPUT: H-Output-1
** 
*Output, history, variable=PRESELECT
*End Step
