*Heading
** Job name: Job-1 Model name: Model-1
** Generated by: Abaqus/CAE 2022
*Preprint, echo=NO, model=NO, history=NO, contact=NO
**
** PARTS
**
*Part, name=Part-1
*Node
      1,          40.,          10.,         400.
      2,          40.,           5.,         400.
      3,          40.,           0.,         400.
      4,          40.,          10.,         395.
      5,          40.,           5.,         395.
      6,          40.,           0.,         395.
      7,          40.,          10.,         390.
      8,          40.,           5.,         390.
      9,          40.,           0.,         390.
     10,          40.,          10.,         385.
     11,          40.,           5.,         385.
     12,          40.,           0.,         385.
     13,          40.,          10.,         380.
     14,          40.,           5.,         380.
     15,          40.,           0.,         380.
     16,          40.,          10.,         375.
     17,          40.,           5.,         375.
     18,          40.,           0.,         375.
     19,          40.,          10.,         370.
     20,          40.,           5.,         370.
** ... 2167 like lines cut
*Element, type=C3D8
   1,  244,  245,  248,  247,    1,    2,    5,    4
   2,  245,  246,  249,  248,    2,    3,    6,    5
   3,  247,  248,  251,  250,    4,    5,    8,    7
   4,  248,  249,  252,  251,    5,    6,    9,    8
   5,  250,  251,  254,  253,    7,    8,   11,   10
   6,  251,  252,  255,  254,    8,    9,   12,   11
   7,  253,  254,  257,  256,   10,   11,   14,   13
   8,  254,  255,  258,  257,   11,   12,   15,   14
   9,  256,  257,  260,  259,   13,   14,   17,   16
  10,  257,  258,  261,  260,   14,   15,   18,   17
  11,  259,  260,  263,  262,   16,   17,   20,   19
  12,  260,  261,  264,  263,   17,   18,   21,   20
  13,  262,  263,  266,  265,   19,   20,   23,   22
  14,  263,  264,  267,  266,   20,   21,   24,   23
  15,  265,  266,  269,  268,   22,   23,   26,   25
  16,  266,  267,  270,  269,   23,   24,   27,   26
  17,  268,  269,  272,  271,   25,   26,   29,   28
  18,  269,  270,  273,  272,   26,   27,   30,   29
  19,  271,  272,  275,  274,   28,   29,   32,   31
  20,  272,  273,  276,  275,   29,   30,   33,   32
** ... 1260 like lines cut
*Nset, nset=Set-1, generate
    1,  2187,     1
*Elset, elset=Set-1, generate
    1,  1280,     1
** Section: Section-1
*Solid Section, elset=Set-1, material=Generic_Metal
,
*End Part
**  
**
** ASSEMBLY
**
*Assembly, name=Assembly
**  
*Instance, name=Part-1-1, part=Part-1
*End Instance
**  
*Nset, nset=_PickedSet4, internal, instance=Part-1-1, generate
    1,  2187,     1
*Elset, elset=_PickedSet4, internal, instance=Part-1-1, generate
    1,  1280,     1
*End Assembly
** 
** MATERIALS
** 
*Material, name=Generic_Metal
*Elastic
72000., 0.3
** 
** PREDEFINED FIELDS
** 
** Name: Predefined Field-1   Type: Stress
*Initial Conditions, type=STRESS
_PickedSet4, 0., 0., 100., 0., 0., 0.
** ----------------------------------------------------------------
** 
** STEP: Step-1
** 
*Step, name=Step-1, nlgeom=NO
Achieve Equilibrium
*Static
1., 1., 1e-05, 1.
** 
** OUTPUT REQUESTS
** 
*Restart, write, frequency=0
** 
** FIELD OUTPUT: F-Output-1
** 
*Output, field, variable=PRESELECT
** 
** HISTORY OUTPUT: H-Output-1
** 
*Output, history, variable=PRESELECT
*End Step
