*Heading
** Job name: Job-1 Model name: Model-1
** Generated by: Abaqus/CAE 2022
*Preprint, echo=NO, model=NO, history=NO, contact=NO
**
** PARTS
**
*Part, name=Initial_Geometry
*Node
      1,          25.,          15.,          50.
      2,          25.,          14.,          50.
      3,          25.,          13.,          50.
      4,          25.,          12.,          50.
      5,          25.,          11.,          50.
      6,          25.,          10.,          50.
      7,          25.,           9.,          50.
      8,          25.,           8.,          50.
      9,          25.,           7.,          50.
     10,          25.,           6.,          50.
     11,          25.,           5.,          50.
     12,          25.,           4.,          50.
     13,          25.,           3.,          50.
     14,          25.,           2.,          50.
     15,          25.,           1.,          50.
     16,          25.,           0.,          50.
     17,          25.,          15.,          49.
     18,          25.,          14.,          49.
     19,          25.,          13.,          49.
     20,          25.,          12.,          49.
** ... 21196 like lines cut
*Element, type=C3D8R
    1,   817,   818,   834,   833,     1,     2,    18,    17
    2,   818,   819,   835,   834,     2,     3,    19,    18
    3,   819,   820,   836,   835,     3,     4,    20,    19
    4,   820,   821,   837,   836,     4,     5,    21,    20
    5,   821,   822,   838,   837,     5,     6,    22,    21
    6,   822,   823,   839,   838,     6,     7,    23,    22
    7,   823,   824,   840,   839,     7,     8,    24,    23
    8,   824,   825,   841,   840,     8,     9,    25,    24
    9,   825,   826,   842,   841,     9,    10,    26,    25
   10,   826,   827,   843,   842,    10,    11,    27,    26
   11,   827,   828,   844,   843,    11,    12,    28,    27
   12,   828,   829,   845,   844,    12,    13,    29,    28
   13,   829,   830,   846,   845,    13,    14,    30,    29
   14,   830,   831,   847,   846,    14,    15,    31,    30
   15,   831,   832,   848,   847,    15,    16,    32,    31
   16,   833,   834,   850,   849,    17,    18,    34,    33
   17,   834,   835,   851,   850,    18,    19,    35,    34
   18,   835,   836,   852,   851,    19,    20,    36,    35
   19,   836,   837,   853,   852,    20,    21,    37,    36
   20,   837,   838,   854,   853,    21,    22,    38,    37
** ... 18730 like lines cut
*Nset, nset=Set-1, generate
     1,  21216,      1
*Elset, elset=Set-1, generate
     1,  18750,      1
** Section: Section-1
*Solid Section, elset=Set-1, material=Material-1
,
*End Part
**  
**
** ASSEMBLY
**
*Assembly, name=Assembly
**  
*Instance, name=Initial_Geometry-1, part=Initial_Geometry
*End Instance
**  
*End Assembly
** 
** MATERIALS
** 
*Material, name=Material-1
*Elastic
 3e+08, 0.3
** ----------------------------------------------------------------
** 
** STEP: Equilbirium
** 
*Step, name=Equilbirium, nlgeom=NO
*Static
1., 1., 1e-05, 1.
** 
** OUTPUT REQUESTS
** 
*Restart, write, frequency=0
** 
** FIELD OUTPUT: F-Output-1
** 
*Output, field, variable=PRESELECT
** 
** HISTORY OUTPUT: H-Output-1
** 
*Output, history, variable=PRESELECT
*End Step
