*Heading
** Job name: Job-1 Model name: Model-1
** Generated by: Abaqus/CAE 2023
*Preprint, echo=NO, model=NO, history=NO, contact=NO
**
** PARTS
**
*Part, name=Part-1
*End Part
**  
**
** ASSEMBLY
**
*Assembly, name=Assembly
**  
*Instance, name=Part-1-1, part=Part-1
*Node
      1,         -10.,         -10.,          10.
      2,         -10.,          -8.,          10.
      3,         -10.,          -6.,          10.
      4,         -10.,          -4.,          10.
      5,         -10.,          -2.,          10.
      6,         -10.,           0.,          10.
      7,         -10.,           2.,          10.
      8,         -10.,           4.,          10.
      9,         -10.,           6.,          10.
     10,         -10.,           8.,          10.
     11,         -10.,          10.,          10.
     12,         -10.,         -10.,           8.
     13,         -10.,          -8.,           8.
     14,         -10.,          -6.,           8.
     15,         -10.,          -4.,           8.
     16,         -10.,          -2.,           8.
     17,         -10.,           0.,           8.
     18,         -10.,           2.,           8.
     19,         -10.,           4.,           8.
     20,         -10.,           6.,           8.
** ... 706 like lines cut
*Element, type=C3D8R
  1,  67,  68,  79,  78,   1,   2,  13,  12
  2,  68,  69,  80,  79,   2,   3,  14,  13
  3,  69,  70,  81,  80,   3,   4,  15,  14
  4,  70,  71,  82,  81,   4,   5,  16,  15
  5,  71,  72,  83,  82,   5,   6,  17,  16
  6,  72,  73,  84,  83,   6,   7,  18,  17
  7,  73,  74,  85,  84,   7,   8,  19,  18
  8,  74,  75,  86,  85,   8,   9,  20,  19
  9,  75,  76,  87,  86,   9,  10,  21,  20
 10,  76,  77,  88,  87,  10,  11,  22,  21
 11,  78,  79,  90,  89,  12,  13,  24,  23
 12,  79,  80,  91,  90,  13,  14,  25,  24
 13,  80,  81,  92,  91,  14,  15,  26,  25
 14,  81,  82,  93,  92,  15,  16,  27,  26
 15,  82,  83,  94,  93,  16,  17,  28,  27
 16,  83,  84,  95,  94,  17,  18,  29,  28
 17,  84,  85,  96,  95,  18,  19,  30,  29
 18,  85,  86,  97,  96,  19,  20,  31,  30
 19,  86,  87,  98,  97,  20,  21,  32,  31
 20,  87,  88,  99,  98,  21,  22,  33,  32
** ... 480 like lines cut
*Nset, nset=Set-1, generate
   1,  726,    1
*Elset, elset=Set-1, generate
   1,  500,    1
** Section: Section-1
*Solid Section, elset=Set-1, material=Material-1
,
*End Instance
**  
*Nset, nset=Set-1, instance=Part-1-1, generate
   1,  726,    1
*Elset, elset=Set-1, instance=Part-1-1, generate
   1,  500,    1
*Elset, elset=_Surf-1_S1, internal, instance=Part-1-1, generate
 451,  500,    1
*Surface, type=ELEMENT, name=Surf-1
_Surf-1_S1, S1
*Elset, elset=_Surf-2_S3, internal, instance=Part-1-1
   1,   2,   3,   4,   5,   6,   7,   8,   9,  10,  51,  52,  53,  54,  55,  56
  57,  58,  59,  60, 101, 102, 103, 104, 105, 106, 107, 108, 109, 110, 151, 152
 153, 154, 155, 156, 157, 158, 159, 160, 201, 202, 203, 204, 205, 206, 207, 208
 209, 210, 251, 252, 253, 254, 255, 256, 257, 258, 259, 260, 301, 302, 303, 304
 305, 306, 307, 308, 309, 310, 351, 352, 353, 354, 355, 356, 357, 358, 359, 360
 401, 402, 403, 404, 405, 406, 407, 408, 409, 410, 451, 452, 453, 454, 455, 456
 457, 458, 459, 460
*Surface, type=ELEMENT, name=Surf-2
_Surf-2_S3, S3
*Elset, elset=_Surf-3_S4, internal, instance=Part-1-1, generate
  10,  500,   10
*Surface, type=ELEMENT, name=Surf-3
_Surf-3_S4, S4
** 
** INTEGRATED OUTPUT SECTIONS
** 
*Integrated Output Section, name=I-Section-1, surface=Surf-1, project orientation=NO
*Integrated Output Section, name=I-Section-2, surface=Surf-2, project orientation=NO
*Integrated Output Section, name=I-Section-3, surface=Surf-3, project orientation=NO
*End Assembly
** 
** MATERIALS
** 
*Material, name=Material-1
*Elastic
 1e+09, 0.3
** 
** BOUNDARY CONDITIONS
** 
** Name: BC-1 Type: Displacement/Rotation
*Boundary
Set-1, 1, 1
Set-1, 2, 2
Set-1, 3, 3
Set-1, 4, 4
Set-1, 5, 5
Set-1, 6, 6
** ----------------------------------------------------------------
** 
** STEP: Step-1
** 
*Initial Conditions, Type=Stress, User
*Step, name=Step-1, nlgeom=NO
*Static
1., 1., 1e-05, 1.
** 
** OUTPUT REQUESTS
** 
*Restart, write, frequency=0
** 
** FIELD OUTPUT: F-Output-1
** 
*Output, field, variable=PRESELECT
** 
** HISTORY OUTPUT: H-Output-2
** 
*Output, history
*Integrated Output, section=I-Section-1
SOF, 
** 
** HISTORY OUTPUT: H-Output-3
** 
*Integrated Output, section=I-Section-2
SOF, 
** 
** HISTORY OUTPUT: H-Output-4
** 
*Integrated Output, section=I-Section-3
SOF, 
** 
** HISTORY OUTPUT: H-Output-1
** 
*Output, history, variable=PRESELECT
*End Step
