*Heading
** Job name: Job-1 Model name: Model-1
** Generated by: Abaqus/CAE 2023
*Preprint, echo=NO, model=NO, history=NO, contact=NO
**
** PARTS
**
*Part, name=Part-1
*End Part
**  
**
** ASSEMBLY
**
*Assembly, name=Assembly
**  
*Instance, name=Part-1-1, part=Part-1
*Node
      1,         -20.,           0.,           0.
      2,          20.,           0.,           0.
      3,  -19.7766171,   2.98084521,           0.
      4,  -18.0193768,   8.67767525,           0.
      5,  -16.5247746,   11.2664013,           0.
      6,  -14.6610374,   13.6034546,           0.
      7,         -10.,    17.320509,           0.
      8,  -7.30682039,   18.6174755,           0.
      9,  -4.45041847,    19.498558,           0.
     10,  -1.49460185,   19.9440765,           0.
     11,   4.45041847,    19.498558,           0.
     12,   7.30682039,   18.6174755,           0.
     13,          10.,    17.320509,           0.
     14,   14.6610374,   13.6034546,           0.
     15,   16.5247746,   11.2664013,           0.
     16,   18.0193768,   8.67767525,           0.
     17,   19.7766171,   2.98084521,           0.
     18,  -16.9230766,           0.,           0.
     19,  -13.8461542,           0.,           0.
     20,  -10.7692308,           0.,           0.
** ... 836 like lines cut
*Element, type=C3D8R
  1,   2,  17, 100,  29, 109, 124, 207, 136
  2,  19,  53,  93,  18, 126, 160, 200, 125
  3,  51,  72,  75,  50, 158, 179, 182, 157
  4,   5,  50,  45,   6, 112, 157, 152, 113
  5,  53,  19,  20,  61, 160, 126, 127, 168
  6,   7,  46,  38,   8, 114, 153, 145, 115
  7,  54,  21,  22,  55, 161, 128, 129, 162
  8,  40,  32,  10,  39, 147, 139, 117, 146
  9,  24,  56,  62,  23, 131, 163, 169, 130
 10,  35,  13,  12,  37, 142, 120, 119, 144
 11,  77,  43,  36,  70, 184, 150, 143, 177
 12, 103,  89,  65,  73, 210, 196, 172, 180
 13,  14,  36,  43,  15, 121, 143, 150, 122
 14,  58,  59,  80,  82, 165, 166, 187, 189
 15,  93,   3,   1,  18, 200, 110, 108, 125
 16,  76,  49,  93,  53, 183, 156, 200, 160
 17,  21,  54,  61,  20, 128, 161, 168, 127
 18,  55,  62,  85,  86, 162, 169, 192, 193
 19,  55,  22,  23,  62, 162, 129, 130, 169
 20, 106,  98,  69,  71, 213, 205, 176, 178
** ... 603 like lines cut
*Nset, nset=Set-1, generate
   1,  856,    1
*Elset, elset=Set-1, generate
   1,  623,    1
** Section: Section-1
*Solid Section, elset=Set-1, material=Material-1
,
*End Instance
**  
*Nset, nset=Set-2, instance=Part-1-1, generate
   1,  856,    1
*Elset, elset=_Surf-1_S6, internal, instance=Part-1-1
   1,   2,   9,  17,  21,  22,  23,  40,  90,  91,  98, 106, 110, 111, 112, 129
 179, 180, 187, 195, 199, 200, 201, 218, 268, 269, 276, 284, 288, 289, 290, 307
 357, 358, 365, 373, 377, 378, 379, 396, 446, 447, 454, 462, 466, 467, 468, 485
 535, 536, 543, 551, 555, 556, 557, 574
*Elset, elset=_Surf-1_S4, internal, instance=Part-1-1
   5,   7,  19,  83,  94,  96, 108, 172, 183, 185, 197, 261, 272, 274, 286, 350
 361, 363, 375, 439, 450, 452, 464, 528, 539, 541, 553, 617
*Elset, elset=_Surf-1_S5, internal, instance=Part-1-1, generate
  15,  549,   89
*Surface, type=ELEMENT, name=Surf-1
_Surf-1_S6, S6
_Surf-1_S4, S4
_Surf-1_S5, S5
*Elset, elset=_Surf-2_S3, internal, instance=Part-1-1, generate
   1,  535,   89
*Elset, elset=_Surf-2_S6, internal, instance=Part-1-1
   4,   6,  13,  24,  27,  93,  95, 102, 113, 116, 182, 184, 191, 202, 205, 271
 273, 280, 291, 294, 360, 362, 369, 380, 383, 449, 451, 458, 469, 472, 538, 540
 547, 558, 561
*Elset, elset=_Surf-2_S4, internal, instance=Part-1-1
   8,  10,  15,  25,  28,  29,  30,  32,  33,  34,  38,  41,  42,  45,  78,  97
  99, 104, 114, 117, 118, 119, 121, 122, 123, 127, 130, 131, 134, 167, 186, 188
 193, 203, 206, 207, 208, 210, 211, 212, 216, 219, 220, 223, 256, 275, 277, 282
 292, 295, 296, 297, 299, 300, 301, 305, 308, 309, 312, 345, 364, 366, 371, 381
 384, 385, 386, 388, 389, 390, 394, 397, 398, 401, 434, 453, 455, 460, 470, 473
 474, 475, 477, 478, 479, 483, 486, 487, 490, 523, 542, 544, 549, 559, 562, 563
 564, 566, 567, 568, 572, 575, 576, 579, 612
*Surface, type=ELEMENT, name=Surf-2
_Surf-2_S3, S3
_Surf-2_S6, S6
_Surf-2_S4, S4
*Elset, elset=_Surf-3_S2, internal, instance=Part-1-1, generate
 535,  623,    1
*Surface, type=ELEMENT, name=Surf-3
_Surf-3_S2, S2
** 
** INTEGRATED OUTPUT SECTIONS
** 
*Integrated Output Section, name=I-Section-1, surface=Surf-1, project orientation=NO
*Integrated Output Section, name=I-Section-2, surface=Surf-2, project orientation=NO
*Integrated Output Section, name=I-Section-3, surface=Surf-3, project orientation=NO
*End Assembly
** 
** MATERIALS
** 
*Material, name=Material-1
*Elastic
 1e+09, 0.3
** 
** BOUNDARY CONDITIONS
** 
** Name: BC-1 Type: Displacement/Rotation
*Boundary
Set-2, 1, 1
Set-2, 2, 2
Set-2, 3, 3
Set-2, 4, 4
Set-2, 5, 5
Set-2, 6, 6
** ----------------------------------------------------------------
** 
** STEP: Step-1
** 
*Initial Conditions, Type=Stress, User
*Step, name=Step-1, nlgeom=NO
*Static
1., 1., 1e-05, 1.
** 
** OUTPUT REQUESTS
** 
*Restart, write, frequency=0
** 
** FIELD OUTPUT: F-Output-1
** 
*Output, field, variable=PRESELECT
** 
** HISTORY OUTPUT: H-Output-2
** 
*Output, history
*Integrated Output, section=I-Section-1
SOF, SOM
** 
** HISTORY OUTPUT: H-Output-3
** 
*Integrated Output, section=I-Section-2
SOF, SOM
** 
** HISTORY OUTPUT: H-Output-4
** 
*Integrated Output, section=I-Section-3
SOF, SOM
** 
** HISTORY OUTPUT: H-Output-1
** 
*Output, history, variable=PRESELECT
*End Step
