*Heading
** Job name: Job-1 Model name: Model-1
** Generated by: Abaqus/CAE 2023
*Preprint, echo=NO, model=NO, history=NO, contact=NO
**
** PARTS
**
*Part, name=Post_Tool_Pass_1
*End Part
**  
**
** ASSEMBLY
**
*Assembly, name=Assembly
**  
*Instance, name=Post_Tool_Pass_1, part=Post_Tool_Pass_1
*Node
      1,           7.,           5.,         300.
      2,           7.,           5.,         200.
      3,           3.,           5.,         200.
      4,           3.,           5.,         300.
      5,           7.,          10.,         300.
      6,           7.,          10.,         200.
      7,           3.,          10.,         200.
      8,           3.,          10.,         300.
      9,           0.,          10.,          40.
     10,          40.,          10.,          40.
     11,          40.,          10.,           0.
     12,           0.,          10.,           0.
     13,           0.,          10.,         360.
     14,          40.,          10.,         360.
     15,           0.,          10.,         400.
     16,          40.,          10.,         400.
     17,          40.,           0.,         400.
     18,          40.,           0.,           0.
     19,           0.,           0.,           0.
     20,           0.,           0.,         400.
** ... 62 like lines cut
*Element, type=C3D4
  1, 14, 13, 72, 79
  2, 80, 13, 72, 14
  3, 48, 29, 13, 71
  4, 69, 46,  4, 24
  5, 50, 80, 29, 71
  6, 80, 71, 50, 49
  7, 73, 81,  2, 55
  8, 34, 33, 73, 55
  9, 61, 38, 60,  9
 10, 67, 54,  2, 22
 11, 81, 26, 33,  6
 12,  2, 55, 66, 73
 13, 81, 73,  6, 33
 14, 82, 22, 21, 25
 15, 17, 72, 15, 79
 16, 79, 17, 72, 49
 17, 79, 14, 49, 72
 18, 72, 14, 49, 80
 19, 79, 72, 15, 13
 20, 82, 52, 68, 53
** ... 150 like lines cut
*Nset, nset=simple_set, generate
  1,  82,   1
*Elset, elset=simple_set, generate
   1,  170,    1
** Section: Section-1
*Solid Section, elset=simple_set, material=Material-1
,
*End Instance
**  
*Nset, nset=_PickedSet8, internal, instance=Post_Tool_Pass_1, generate
  9,  12,   1
*Elset, elset=_PickedSet8, internal, instance=Post_Tool_Pass_1
  34, 119
*Nset, nset=_PickedSet10, internal, instance=Post_Tool_Pass_1, generate
 13,  16,   1
*Elset, elset=_PickedSet10, internal, instance=Post_Tool_Pass_1
 59, 91
*End Assembly
** 
** MATERIALS
** 
*Material, name=Material-1
*Elastic
 1e+09, 0.3
** 
** BOUNDARY CONDITIONS
** 
** Name: Boundary_Condition_0 Type: Displacement/Rotation
*Boundary
_PickedSet8, 1, 1
_PickedSet8, 2, 2
_PickedSet8, 3, 3
_PickedSet8, 4, 4
_PickedSet8, 5, 5
_PickedSet8, 6, 6
** Name: Boundary_Condition_1 Type: Displacement/Rotation
*Boundary
_PickedSet10, 1, 1
_PickedSet10, 2, 2
_PickedSet10, 3, 3
_PickedSet10, 4, 4
_PickedSet10, 5, 5
_PickedSet10, 6, 6
** ----------------------------------------------------------------
** 
** STEP: Equilibrium2
** 
*Initial Conditions, Type=Stress, User
*Step, name=Equilibrium2, nlgeom=NO
*Static
1., 1., 1e-05, 1.
** 
** OUTPUT REQUESTS
** 
*Restart, write, frequency=0
** 
** FIELD OUTPUT: F-Output-1
** 
*Output, field, variable=PRESELECT
** 
** HISTORY OUTPUT: H-Output-1
** 
*Output, history, variable=PRESELECT
*End Step
