*Heading
** Job name: Job-2 Model name: Model-2
** Generated by: Abaqus/CAE 2023
*Preprint, echo=NO, model=NO, history=NO, contact=NO
**
** PARTS
**
*Part, name=Post_Tool_Pass_2
*End Part
**  
**
** ASSEMBLY
**
*Assembly, name=Assembly
**  
*Instance, name=Post_Tool_Pass_2, part=Post_Tool_Pass_2
*Node
      1,          40.,          10.,           0.
      2,          40., 4.94915042e-08, -2.84704583e-07
      3,           0.,          10.,           0.
      4,           0.,          10.,          40.
      5,          40.,          10.,          40.
      6, 1.98623206e-06, -3.79329265e-07, -1.4748845e-07
      7,   39.9999962, -1.62351572e-08,   30.7692299
      8,   39.9999962,   9.99999905,   69.0909119
      9, 1.94506538e-06, -4.55417876e-07,   30.7692299
     10, 6.45406089e-06,   9.99999714,   69.0909119
     11,   39.9999924, -2.0646296e-06,    61.538456
     12,   19.9307594,   9.99999619,   89.4545441
     13,   39.9999924,   9.99999809,   98.1818161
     14, 7.57736962e-06, -3.29865247e-06,   61.5384598
     15, 1.01541991e-05,   9.99999428,   98.1818161
     16,   19.9769249,   9.99999428,   112.727272
     17,   39.9999962, -5.22777191e-06,   92.3076859
     18,   39.9999924,   9.99999523,   127.272728
     19, 1.23493855e-05, -5.98280349e-06,   92.3076935
     20, 1.24963053e-05,   9.99999237,   127.272728
** ... 92 like lines cut
*Element, type=C3D4
  1, 112,  86,  88,  89
  2,  86,  88,  89, 111
  3, 111, 110,  85,  86
  4, 111,  88,  84,  87
  5, 111, 110,  84,  85
  6,  90,  86, 112,  89
  7, 111, 110,  87,  84
  8,  87, 110,  83,  84
  9,  89,  86, 111,  85
 10, 110,  85,  82, 109
 11, 110,  83, 109,  82
 12,  91, 112,  90,  86
 13,  87,  88,  86, 111
 14, 111,  87, 110,  86
 15, 110, 109,  84,  85
 16,  70, 108,  57,  81
 17,  95,   9,   4,   5
 18, 109,  84,  80,  83
 19,  79,  81, 105,  80
 20, 110,  85,  86,  82
** ... 219 like lines cut
*Nset, nset=simple_set, generate
   1,  112,    1
*Elset, elset=simple_set, generate
   1,  239,    1
** Section: Section-1
*Solid Section, elset=simple_set, material=Material-1
,
*End Instance
**  
*Nset, nset=_PickedSet7, internal, instance=Post_Tool_Pass_2
 1, 3, 4, 5
*Elset, elset=_PickedSet7, internal, instance=Post_Tool_Pass_2
 223, 232
*Nset, nset=_PickedSet8, internal, instance=Post_Tool_Pass_2
 86, 87, 90, 91
*Elset, elset=_PickedSet8, internal, instance=Post_Tool_Pass_2
  12, 127
*End Assembly
** 
** MATERIALS
** 
*Material, name=Material-1
*Elastic
 1e+09, 0.3
** 
** BOUNDARY CONDITIONS
** 
** Name: Boundary_Condition_0 Type: Displacement/Rotation
*Boundary
_PickedSet7, 1, 1
_PickedSet7, 2, 2
_PickedSet7, 3, 3
_PickedSet7, 4, 4
_PickedSet7, 5, 5
_PickedSet7, 6, 6
** Name: Boundary_Condition_1 Type: Displacement/Rotation
*Boundary
_PickedSet8, 1, 1
_PickedSet8, 2, 2
_PickedSet8, 3, 3
_PickedSet8, 4, 4
_PickedSet8, 5, 5
_PickedSet8, 6, 6
** ----------------------------------------------------------------
** 
** STEP: Equilibrium2
** 
*Initial Conditions, Type=Stress
*External Field, File=Job-1.sim
 , , , , ,S, , 
*Step, name=Equilibrium2, nlgeom=NO
*Static
1., 1., 1e-05, 1.
** 
** OUTPUT REQUESTS
** 
*Restart, write, frequency=0
** 
** FIELD OUTPUT: F-Output-1
** 
*Output, field, variable=PRESELECT
** 
** HISTORY OUTPUT: H-Output-1
** 
*Output, history, variable=PRESELECT
*End Step
