*Heading
** Job name: Job-3 Model name: Model-3
** Generated by: Abaqus/CAE 2023
*Preprint, echo=NO, model=NO, history=NO, contact=NO
**
** PARTS
**
*Part, name=Post_Tool_Pass_3
*End Part
**  
**
** ASSEMBLY
**
*Assembly, name=Assembly
**  
*Instance, name=Post_Tool_Pass_3, part=Post_Tool_Pass_3
*Node
      1,   20.0000038, -1.40920335e-07,   384.615387
      2,   39.9999962, -1.41010696e-06,         400.
      3, 2.40861459e-06, 6.6715117e-08,         400.
      4, 5.6337949e-06, -5.20800938e-07,   369.230774
      5,   39.9999924, -1.59610249e-06,   369.230774
      6,          40.,          10.,         400.
      7,           0.,          10.,         400.
      8,   20.0000076, 8.86459475e-08,   353.846161
      9,          40.,          10.,         360.
     10,           0.,          10.,         360.
     11, 9.01597923e-06, -8.27268252e-07,   338.461548
     12,   3.00000644,   4.99999475,         300.
     13,   3.00000596,   9.99999523,         300.
     14,   3.25280094,   9.99999428,   300.973297
     15,   39.9999886, -6.99025713e-06,   338.461548
     16,   3.58578181,   4.99999714,   301.414215
     17,   4.99999666,   9.99999428,         302.
     18, 5.84445797e-06,   9.99999523,   301.818176
     19,   3.00000811,   4.99999332,   266.666656
     20,   3.00000763,   9.99999237,   266.666656
** ... 122 like lines cut
*Element, type=C3D4
  1, 142, 139,  66,  93
  2, 142,  80,  79,  93
  3, 142,  60,  66, 139
  4, 142,  47, 139,  63
  5,  61,  72,  98,  67
  6, 142,  47,  60, 139
  7, 132, 129, 126, 130
  8, 128, 127, 121, 123
  9, 129, 128, 123, 126
 10, 130, 126, 125, 127
 11, 127, 130, 126, 128
 12, 127, 119, 125, 121
 13, 128, 134, 130, 129
 14, 127, 125, 119, 122
 15, 127, 123, 118, 121
 16, 128, 130, 126, 129
 17, 127, 122, 119, 118
 18, 127, 121, 118, 119
 19, 127, 124, 118, 123
 20, 121, 117, 118, 119
** ... 287 like lines cut
*Nset, nset=simple_set, generate
   1,  142,    1
*Elset, elset=simple_set, generate
   1,  307,    1
** Section: Section-1
*Solid Section, elset=simple_set, material=Material-1
,
*End Instance
**  
*Nset, nset=_PickedSet7, internal, instance=Post_Tool_Pass_3
 128, 130, 133, 134
*Elset, elset=_PickedSet7, internal, instance=Post_Tool_Pass_3
  13, 110
*Nset, nset=_PickedSet9, internal, instance=Post_Tool_Pass_3
  6,  7,  9, 10
*Elset, elset=_PickedSet9, internal, instance=Post_Tool_Pass_3
 292, 299
*End Assembly
** 
** MATERIALS
** 
*Material, name=Material-1
*Elastic
 1e+09, 0.3
** 
** BOUNDARY CONDITIONS
** 
** Name: Boundary_Condition_0 Type: Displacement/Rotation
*Boundary
_PickedSet7, 1, 1
_PickedSet7, 2, 2
_PickedSet7, 3, 3
_PickedSet7, 4, 4
_PickedSet7, 5, 5
_PickedSet7, 6, 6
** Name: Boundary_Condition_1 Type: Displacement/Rotation
*Boundary
_PickedSet9, 1, 1
_PickedSet9, 2, 2
_PickedSet9, 3, 3
_PickedSet9, 4, 4
_PickedSet9, 5, 5
_PickedSet9, 6, 6
** ----------------------------------------------------------------
** 
** STEP: Equilibrium2
** 
*Initial Conditions, Type=Stress
*External Field, File=Job-2.sim
 , , , , ,S, , 
*Step, name=Equilibrium2, nlgeom=NO
*Static
1., 1., 1e-05, 1.
** 
** OUTPUT REQUESTS
** 
*Restart, write, frequency=0
** 
** FIELD OUTPUT: F-Output-1
** 
*Output, field, variable=PRESELECT
** 
** HISTORY OUTPUT: H-Output-1
** 
*Output, history, variable=PRESELECT
*End Step
