*Heading
** Job name: Post_Tool_Pass_3 Model name: Model-4
** Generated by: Abaqus/CAE 2023
*Preprint, echo=NO, model=NO, history=NO, contact=NO
**
** PARTS
**
*Part, name=Post_Tool_Pass_3
*End Part
**  
**
** ASSEMBLY
**
*Assembly, name=Assembly
**  
*Instance, name=Post_Tool_Pass_3, part=Post_Tool_Pass_3
*Node
      1,           0.,           0.,         400.
      2,           0.,           0.,           0.
      3,          40.,           0.,           0.
      4,          40.,           0.,         400.
      5,          40.,          10.,           0.
      6,          40.,          10.,          40.
      7,          40.,           5.,          80.
      8,          40.,          10.,         360.
      9,          40.,          10.,         400.
     10,          40.,           5.,          40.
     11,          40.,          10.,          80.
     12,          40.,           9.,         185.
     13,          40.,           9.,         215.
     14,          40.,          10.,         215.
     15,          40.,          10.,         185.
     16,           0.,          10.,         400.
     17,           0.,          10.,          80.
     18,           0.,           5.,          80.
     19,           0.,          10.,           0.
     20,           0.,           9.,         185.
** ... 78 like lines cut
*Element, type=C3D4
  1, 89, 46, 63, 79
  2, 91, 68, 29, 63
  3, 92, 49, 60, 48
  4, 92, 93, 12, 21
  5, 47, 94, 62, 61
  6, 32, 43, 66, 95
  7, 95, 27, 30, 22
  8, 16, 66,  8,  9
  9, 79, 91, 68, 29
 10, 95, 16, 66,  8
 11, 95, 22, 43, 16
 12, 43, 16, 66, 95
 13, 95, 31, 32, 43
 14, 62, 80, 47, 89
 15, 54, 96, 26, 25
 16, 13, 67, 24, 94
 17, 21, 93, 13, 94
 18, 94, 24, 80, 67
 19, 94, 93, 13, 61
 20, 93, 48, 94, 21
** ... 195 like lines cut
*Nset, nset=simple_set, generate
  1,  98,   1
*Elset, elset=simple_set, generate
   1,  215,    1
** Section: Section-ASSEMBLY_POST_TOOL_PASS_2_SIMPLE_SET
*Solid Section, elset=simple_set, material=MATERIAL-1
0.,
*End Instance
**  
*Nset, nset=_PickedSet18, internal, instance=Post_Tool_Pass_3
  5,  6, 19, 26
*Elset, elset=_PickedSet18, internal, instance=Post_Tool_Pass_3
 122, 162
*Nset, nset=_PickedSet20, internal, instance=Post_Tool_Pass_3
  8,  9, 16, 22
*Elset, elset=_PickedSet20, internal, instance=Post_Tool_Pass_3
   8, 116
*End Assembly
** 
** MATERIALS
** 
*Material, name=MATERIAL-1
*Elastic
 1.9e+11, 0.3
** 
** PHYSICAL CONSTANTS
** 
*Physical Constants, absolute zero=0., stefan boltzmann=0.
** 
** BOUNDARY CONDITIONS
** 
** Name: Boundary_Condition_0 Type: Displacement/Rotation
*Boundary
_PickedSet18, 1, 1
_PickedSet18, 2, 2
_PickedSet18, 3, 3
_PickedSet18, 4, 4
_PickedSet18, 5, 5
_PickedSet18, 6, 6
** Name: Boundary_Condition_1 Type: Displacement/Rotation
*Boundary
_PickedSet20, 1, 1
_PickedSet20, 2, 2
_PickedSet20, 3, 3
_PickedSet20, 4, 4
_PickedSet20, 5, 5
_PickedSet20, 6, 6
** ----------------------------------------------------------------
** 
** STEP: Equilibrium2
** 
*Initial Conditions, Type=Stress
*External Field, File=POST_TOOL_PASS_2.sim
 , , , , ,S, , 
*Step, name=Equilibrium2, nlgeom=NO
*Static
1., 1., 1e-05, 1.
** 
** OUTPUT REQUESTS
** 
*Restart, write, frequency=0
** 
** FIELD OUTPUT: F-Output-1
** 
*Output, field, variable=PRESELECT
** 
** HISTORY OUTPUT: H-Output-1
** 
*Output, history, variable=PRESELECT
*End Step
