*Heading
** Job name: Job-1 Model name: Model-1
** Generated by: Abaqus/CAE 2023
*Preprint, echo=NO, model=NO, history=NO, contact=NO
**
** PARTS
**
*Part, name=Part-1
*End Part
**  
**
** ASSEMBLY
**
*Assembly, name=Assembly
**  
*Instance, name=Part-1-1, part=Part-1
*Node
      1,          10.,          10.,          20.
      2,          10.,           9.,          20.
      3,          10.,           8.,          20.
      4,          10.,           7.,          20.
      5,          10.,           6.,          20.
      6,          10.,           5.,          20.
      7,          10.,           4.,          20.
      8,          10.,           3.,          20.
      9,          10.,           2.,          20.
     10,          10.,           1.,          20.
     11,          10.,           0.,          20.
     12,          10.,          -1.,          20.
     13,          10.,          -2.,          20.
     14,          10.,          -3.,          20.
     15,          10.,          -4.,          20.
     16,          10.,          -5.,          20.
     17,          10.,          -6.,          20.
     18,          10.,          -7.,          20.
     19,          10.,          -8.,          20.
     20,          10.,          -9.,          20.
** ... 9241 like lines cut
*Element, type=C3D8R
   1,  442,  443,  464,  463,    1,    2,   23,   22
   2,  443,  444,  465,  464,    2,    3,   24,   23
   3,  444,  445,  466,  465,    3,    4,   25,   24
   4,  445,  446,  467,  466,    4,    5,   26,   25
   5,  446,  447,  468,  467,    5,    6,   27,   26
   6,  447,  448,  469,  468,    6,    7,   28,   27
   7,  448,  449,  470,  469,    7,    8,   29,   28
   8,  449,  450,  471,  470,    8,    9,   30,   29
   9,  450,  451,  472,  471,    9,   10,   31,   30
  10,  451,  452,  473,  472,   10,   11,   32,   31
  11,  452,  453,  474,  473,   11,   12,   33,   32
  12,  453,  454,  475,  474,   12,   13,   34,   33
  13,  454,  455,  476,  475,   13,   14,   35,   34
  14,  455,  456,  477,  476,   14,   15,   36,   35
  15,  456,  457,  478,  477,   15,   16,   37,   36
  16,  457,  458,  479,  478,   16,   17,   38,   37
  17,  458,  459,  480,  479,   17,   18,   39,   38
  18,  459,  460,  481,  480,   18,   19,   40,   39
  19,  460,  461,  482,  481,   19,   20,   41,   40
  20,  461,  462,  483,  482,   20,   21,   42,   41
** ... 7980 like lines cut
*Nset, nset=Set-1, generate
    1,  9261,     1
*Elset, elset=Set-1, generate
    1,  8000,     1
** Section: Section-1
*Solid Section, elset=Set-1, material=Material-1
,
*End Instance
**  
*Nset, nset=Set-1, instance=Part-1-1, generate
    1,  9261,     1
*Elset, elset=_Surf-1_S2, internal, instance=Part-1-1, generate
   1,  400,    1
*Surface, type=ELEMENT, name=Surf-1
_Surf-1_S2, S2
*Elset, elset=_Surf-2_S1, internal, instance=Part-1-1, generate
 7601,  8000,     1
*Surface, type=ELEMENT, name=Surf-2
_Surf-2_S1, S1
** 
** INTEGRATED OUTPUT SECTIONS
** 
*Integrated Output Section, name=I-Section-1, surface=Surf-1, project orientation=NO
*Integrated Output Section, name=I-Section-2, surface=Surf-2, project orientation=NO
*End Assembly
** 
** MATERIALS
** 
*Material, name=Material-1
*Elastic
 1e+10, 0.3
** 
** BOUNDARY CONDITIONS
** 
** Name: BC-1 Type: Displacement/Rotation
*Boundary
Set-1, 1, 1
Set-1, 2, 2
Set-1, 3, 3
Set-1, 4, 4
Set-1, 5, 5
Set-1, 6, 6
** ----------------------------------------------------------------
** 
** STEP: Step-1
** 
*Initial Conditions, Type=Stress, User
*Step, name=Step-1, nlgeom=NO
*Static
1., 1., 1e-05, 1.
** 
** OUTPUT REQUESTS
** 
*Restart, write, frequency=0
** 
** FIELD OUTPUT: F-Output-1
** 
*Output, field, variable=PRESELECT
** 
** HISTORY OUTPUT: H-Output-2
** 
*Output, history
*Integrated Output, section=I-Section-1
SOF, SOM
** 
** HISTORY OUTPUT: H-Output-3
** 
*Integrated Output, section=I-Section-2
SOF, SOM
** 
** HISTORY OUTPUT: H-Output-1
** 
*Output, history, variable=PRESELECT
*End Step
