*Heading
** Job name: Job-1 Model name: Model-1
** Generated by: Abaqus/CAE 2023
*Preprint, echo=NO, model=NO, history=NO, contact=NO
**
** PARTS
**
*Part, name=Part-1
*End Part
**  
**
** ASSEMBLY
**
*Assembly, name=Assembly
**  
*Instance, name=Part-1-1, part=Part-1
*Node
      1,           0.,          20.,   110.239998
      2,           0.,          15.,   110.239998
      3,           0.,          15.,   89.7600021
      4,           0.,          20.,   89.7600021
      5,           0.,          20.,           0.
      6,           0.,           0.,           0.
      7,           0.,           0.,         200.
      8,           0.,          20.,         200.
      9,          40.,          15.,   110.239998
     10,          40.,          15.,   89.7600021
     11,          40.,          20.,   89.7600021
     12,          40.,          20.,           0.
     13,          40.,           0.,           0.
     14,          40.,           0.,         200.
     15,          40.,          20.,         200.
     16,          40.,          20.,   110.239998
     17,           0.,          15.,         100.
     18,           0.,          20.,   79.7866669
     19,           0.,          20.,   69.8133316
     20,           0.,          20.,   59.8400002
** ... 2145 like lines cut
*Element, type=C3D10
   1,  269,  101,  270,  166,  360,  359,  358,  362,  361,  363
   2,  269,  270,  101,  256,  358,  359,  360,  365,  364,  366
   3,  269,  256,  109,  270,  365,  368,  367,  358,  364,  369
   4,  269,  271,  244,  272,  372,  371,  370,  374,  373,  375
   5,  269,  270,  273,  166,  358,  377,  376,  362,  363,  378
   6,  274,  169,  272,  172,  381,  380,  379,  383,  382,  384
   7,  274,  241,  275,  276,  387,  386,  385,  389,  388,  390
   8,  255,  241,  111,  254,  393,  392,  391,  395,  394,  396
   9,  241,  274,  255,  244,  387,  397,  393,  399,  398,  400
  10,  244,  272,  274,  269,  375,  379,  398,  370,  374,  401
  11,  276,  274,  241,  272,  389,  387,  388,  402,  379,  403
  12,  269,  255,  274,  244,  404,  397,  401,  370,  400,  398
  13,  275,  254,   98,  253,  407,  406,  405,  409,  408,  410
  14,  277,  278,  279,  213,  413,  412,  411,  415,  414,  416
  15,  126,  213,  127,  277,  419,  418,  417,  420,  415,  421
  16,  280,  252,  253,   97,  424,  423,  422,  426,  425,  427
  17,  277,  213,  281,  126,  415,  429,  428,  420,  419,  430
  18,  282,  219,  283,  284,  433,  432,  431,  435,  434,  436
  19,  219,  285,  282,  286,  438,  437,  433,  440,  439,  441
  20,  285,  160,  282,  286,  443,  442,  437,  439,  444,  441
** ... 1166 like lines cut
*Nset, nset=Set-1, generate
    1,  2165,     1
*Elset, elset=Set-1, generate
    1,  1186,     1
** Section: Section-1
*Solid Section, elset=Set-1, material=Material-1
,
*End Instance
**  
*Node
      1,          20.,         17.5,   89.7600021
*Node
      2,          20.,         17.5,          80.
*Nset, nset=Set-3, instance=Part-1-1
    7,    8,   14,   15,   46,   80,   81,   82,  102,  103,  104,  105,  223,  224,  225, 1111
 1114, 1377, 1378, 1380, 1383, 1385, 1387, 1454, 1459, 1462, 1555, 1615, 1616, 1619, 1646, 1647
 1648, 1679, 1680, 1684, 1686, 1798, 1872, 1873, 1874, 1880, 1926, 1927, 2048
*Elset, elset=Set-3, instance=Part-1-1
  309,  311,  475,  498,  501,  595,  651,  668,  669,  679,  733,  734,  930,  938, 1133, 1137
*Elset, elset=_Surf-1_S1, internal, instance=Part-1-1
 1054, 1056, 1064
*Elset, elset=_Surf-1_S3, internal, instance=Part-1-1
 1055, 1063, 1065
*Elset, elset=_Surf-1_S4, internal, instance=Part-1-1
 1059, 1085
*Surface, type=ELEMENT, name=Surf-1
_Surf-1_S1, S1
_Surf-1_S3, S3
_Surf-1_S4, S4
*Elset, elset=_Surf-2_S1, internal, instance=Part-1-1
 1054, 1056, 1064
*Elset, elset=_Surf-2_S3, internal, instance=Part-1-1
 1055, 1063, 1065
*Elset, elset=_Surf-2_S4, internal, instance=Part-1-1
 1059, 1085
*Surface, type=ELEMENT, name=Surf-2
_Surf-2_S1, S1
_Surf-2_S3, S3
_Surf-2_S4, S4
*End Assembly
** 
** MATERIALS
** 
*Material, name=Material-1
*Elastic
 1e+10, 0.3
** ----------------------------------------------------------------
** 
** STEP: tractions
** 
*Step, name=tractions, nlgeom=NO
*Static
1., 1., 1e-05, 1.
** 
** BOUNDARY CONDITIONS
** 
** Name: BC-1 Type: Symmetry/Antisymmetry/Encastre
*Boundary
Set-3, ENCASTRE
** 
** LOADS
** 
** Name: Load-1   Type: Surface traction
*Dsload
Surf-2, TRVEC, 1000., 0., 0., -1.
** 
** OUTPUT REQUESTS
** 
*Restart, write, frequency=0
** 
** FIELD OUTPUT: F-Output-1
** 
*Output, field, variable=PRESELECT
** 
** HISTORY OUTPUT: H-Output-1
** 
*Output, history, variable=PRESELECT
*End Step
