*Heading
** Job name: Job-1 Model name: Model-1
** Generated by: Abaqus/CAE 2022
*Preprint, echo=NO, model=NO, history=NO, contact=NO
**
** PARTS
**
*Part, name=no_stress_forces_applied
*Node
      1,           0.,           0.,   204.992966
      2,           0.,           0.,         400.
      3,           0.,          10.,         400.
      4,           0.,          9.5,         205.
      5,           0.,         9.75,         205.
      6,           0.,          10.,         205.
      7,           0.,          9.5,         195.
      8,           0.,           0.,   195.007126
      9,           0.,         9.75,         195.
     10,           0.,          10.,         195.
     11,           0.,          10.,           0.
     12,           0.,           0.,           0.
     13,           0.,           0.,   206.986282
     14,           0.,           0.,   208.977966
     15,           0.,           0.,   210.968674
     16,           0.,           0.,   212.958878
     17,           0.,           0.,   214.948853
     18,           0.,           0.,   216.938736
     19,           0.,           0.,   218.928574
     20,           0.,           0.,    220.91835
** ... 29506 like lines cut
*Element, type=C3D8R
    1,   214,   425,    13,     1,  1620,  1831,  1419,  1407
    2,   425,   426,    14,    13,  1831,  1832,  1420,  1419
    3,   426,   427,    15,    14,  1832,  1833,  1421,  1420
    4,   427,   428,    16,    15,  1833,  1834,  1422,  1421
    5,   428,   429,    17,    16,  1834,  1835,  1423,  1422
    6,   429,   430,    18,    17,  1835,  1836,  1424,  1423
    7,   430,   431,    19,    18,  1836,  1837,  1425,  1424
    8,   431,   432,    20,    19,  1837,  1838,  1426,  1425
    9,   432,   433,    21,    20,  1838,  1839,  1427,  1426
   10,   433,   434,    22,    21,  1839,  1840,  1428,  1427
   11,   434,   435,    23,    22,  1840,  1841,  1429,  1428
   12,   435,   436,    24,    23,  1841,  1842,  1430,  1429
   13,   436,   437,    25,    24,  1842,  1843,  1431,  1430
   14,   437,   438,    26,    25,  1843,  1844,  1432,  1431
   15,   438,   439,    27,    26,  1844,  1845,  1433,  1432
   16,   439,   440,    28,    27,  1845,  1846,  1434,  1433
   17,   440,   441,    29,    28,  1846,  1847,  1435,  1434
   18,   441,   442,    30,    29,  1847,  1848,  1436,  1435
   19,   442,   443,    31,    30,  1848,  1849,  1437,  1436
   20,   443,   444,    32,    31,  1849,  1850,  1438,  1437
** ... 23900 like lines cut
*Nset, nset=_PickedSet11, internal, generate
     1,  29526,      1
*Elset, elset=_PickedSet11, internal, generate
     1,  23920,      1
** Section: Section-1
*Solid Section, elset=_PickedSet11, material=Generic-Metal
,
*End Part
**  
**
** ASSEMBLY
**
*Assembly, name=Assembly
**  
*Instance, name=no_stress_forces_applied-1, part=no_stress_forces_applied
*End Instance
**  
*Nset, nset=_PickedSet4, internal, instance=no_stress_forces_applied-1
 14065,
*Nset, nset=_PickedSet5, internal, instance=no_stress_forces_applied-1
 14069,
*Elset, elset=__PickedSurf6_S5, internal, instance=no_stress_forces_applied-1
   613,   614,  1809,  1810,  3005,  3006,  4201,  4202,  5397,  5398,  6593,  6594,  7789,  7790,  8985,  8986
 10181, 10182, 11377, 11378, 12573, 12574, 13769, 13770, 14965, 14966, 16161, 16162, 17357, 17358, 18553, 18554
 19749, 19750, 20945, 20946, 22141, 22142, 23337, 23338
*Surface, type=ELEMENT, name=_PickedSurf6, internal
__PickedSurf6_S5, S5
*Elset, elset=__PickedSurf7_S6, internal, instance=no_stress_forces_applied-1
   393,   491,  1589,  1687,  2785,  2883,  3981,  4079,  5177,  5275,  6373,  6471,  7569,  7667,  8765,  8863
  9961, 10059, 11157, 11255, 12353, 12451, 13549, 13647, 14745, 14843, 15941, 16039, 17137, 17235, 18333, 18431
 19529, 19627, 20725, 20823, 21921, 22019, 23117, 23215
*Surface, type=ELEMENT, name=_PickedSurf7, internal
__PickedSurf7_S6, S6
*End Assembly
** 
** MATERIALS
** 
*Material, name=Generic-Metal
*Elastic
 2e+11, 0.3
** ----------------------------------------------------------------
** 
** STEP: Apply_Forces
** 
*Step, name=Apply_Forces, nlgeom=NO
*Static
1., 1., 1e-05, 1.
** 
** LOADS
** 
** Name: Load-3   Type: Pressure
*Dsload
_PickedSurf6, P, 10000.
** Name: Load-4   Type: Pressure
*Dsload
_PickedSurf7, P, 10000.
** 
** OUTPUT REQUESTS
** 
*Restart, write, frequency=0
** 
** FIELD OUTPUT: F-Output-1
** 
*Output, field, variable=PRESELECT
** 
** HISTORY OUTPUT: H-Output-1
** 
*Output, history, variable=PRESELECT
*End Step
