*Heading
** Job name: Job-1 Model name: Model-1
** Generated by: Abaqus/CAE 2023
*Preprint, echo=NO, model=NO, history=NO, contact=NO
**
** PARTS
**
*Part, name=Part-1
*End Part
**  
**
** ASSEMBLY
**
*Assembly, name=Assembly
**  
*Instance, name=Part-1-1, part=Part-1
*Node
      1,  -19.7766171,   2.98084521,          20.
      2,  -18.0193768,   8.67767525,          20.
      3,  -16.5247746,   11.2664013,          20.
      4,  -14.6610374,   13.6034546,          20.
      5,         -10.,    17.320509,          20.
      6,  -7.30682039,   18.6174755,          20.
      7,  -4.45041847,    19.498558,          20.
      8,  -1.49460185,   19.9440765,          20.
      9,   4.45041847,    19.498558,          20.
     10,   7.30682039,   18.6174755,          20.
     11,          10.,    17.320509,          20.
     12,   14.6610374,   13.6034546,          20.
     13,   16.5247746,   11.2664013,          20.
     14,   18.0193768,   8.67767525,          20.
     15,   19.7766171,   2.98084521,          20.
     16,         -20.,           0.,          20.
     17,          20.,           0.,          20.
     18,         -20.,         -10.,          20.
     19,          20.,         -10.,          20.
     20,  -19.1114559,   5.89510345,          20.
** ... 1300 like lines cut
*Element, type=C3D8R
   1,   78,  162,  109,   89,  243,  327,  274,  254
   2,   82,   93,   60,   55,  247,  258,  225,  220
   3,   49,   44,    5,    6,  214,  209,  170,  171
   4,   60,   54,    3,    4,  225,  219,  168,  169
   5,    7,    8,   45,   47,  172,  173,  210,  212
   6,   54,   58,    2,    3,  219,  223,  167,  168
   7,   63,   32,   31,   61,  228,  197,  196,  226
   8,  132,  136,  122,  110,  297,  301,  287,  275
   9,  100,   97,   61,   62,  265,  262,  226,  227
  10,   80,   78,   47,   45,  245,  243,  212,  210
  11,   99,  104,   69,   63,  264,  269,  234,  228
  12,   28,   65,   64,   29,  193,  230,  229,  194
  13,   10,   11,   46,   48,  175,  176,  211,  213
  14,   65,   28,   27,   96,  230,  193,  192,  261
  15,    9,   10,   48,   42,  174,  175,  213,  207
  16,   59,    1,   20,   56,  224,  166,  185,  221
  17,   52,   45,    8,   22,  217,  210,  173,  187
  18,   25,   72,   96,   26,  190,  237,  261,  191
  19,   96,   27,   18,   26,  261,  192,  183,  191
  20,   84,   75,  152,  105,  249,  240,  317,  270
** ... 988 like lines cut
*Nset, nset=Set-1, generate
    1,  1320,     1
*Elset, elset=Set-1, generate
    1,  1008,     1
** Section: Section-1
*Solid Section, elset=Set-1, material=Material-1
,
*End Instance
**  
*Nset, nset=Set-2, instance=Part-1-1, generate
    1,  1320,     1
*Elset, elset=_Surf-1_S4, internal, instance=Part-1-1
   7,  14,  19,  28,  54,  58,  60,  62, 151, 158, 163, 172, 198, 202, 204, 206
 295, 302, 307, 316, 342, 346, 348, 350, 439, 446, 451, 460, 486, 490, 492, 494
 583, 590, 595, 604, 630, 634, 636, 638, 727, 734, 739, 748, 774, 778, 780, 782
 871, 878, 883, 892, 918, 922, 924, 926
*Elset, elset=_Surf-1_S6, internal, instance=Part-1-1
  12,  24,  25,  51,  56, 156, 168, 169, 195, 200, 300, 312, 313, 339, 344, 444
 456, 457, 483, 488, 588, 600, 601, 627, 632, 732, 744, 745, 771, 776, 876, 888
 889, 915, 920
*Surface, type=ELEMENT, name=Surf-1
_Surf-1_S4, S4
_Surf-1_S6, S6
*Elset, elset=_Surf-2_S5, internal, instance=Part-1-1
   3,   4,   6,  17,  23,  26,  30,  31,  32,  34,  35,  37,  43,  45, 147, 148
 150, 161, 167, 170, 174, 175, 176, 178, 179, 181, 187, 189, 291, 292, 294, 305
 311, 314, 318, 319, 320, 322, 323, 325, 331, 333, 435, 436, 438, 449, 455, 458
 462, 463, 464, 466, 467, 469, 475, 477, 579, 580, 582, 593, 599, 602, 606, 607
 608, 610, 611, 613, 619, 621, 723, 724, 726, 737, 743, 746, 750, 751, 752, 754
 755, 757, 763, 765, 867, 868, 870, 881, 887, 890, 894, 895, 896, 898, 899, 901
 907, 909
*Elset, elset=_Surf-2_S3, internal, instance=Part-1-1
   5,  13,  15,  39,  47, 149, 157, 159, 183, 191, 293, 301, 303, 327, 335, 437
 445, 447, 471, 479, 581, 589, 591, 615, 623, 725, 733, 735, 759, 767, 869, 877
 879, 903, 911
*Elset, elset=_Surf-2_S4, internal, instance=Part-1-1
  16,  48, 160, 192, 304, 336, 448, 480, 592, 624, 736, 768, 880, 912
*Surface, type=ELEMENT, name=Surf-2
_Surf-2_S5, S5
_Surf-2_S3, S3
_Surf-2_S4, S4
*Elset, elset=_Surf-3_S1, internal, instance=Part-1-1, generate
   1,  144,    1
*Surface, type=ELEMENT, name=Surf-3
_Surf-3_S1, S1
** 
** INTEGRATED OUTPUT SECTIONS
** 
*Integrated Output Section, name=I-Section-1, surface=Surf-1, project orientation=NO
*Integrated Output Section, name=I-Section-2, surface=Surf-2, project orientation=NO
*Integrated Output Section, name=I-Section-3, surface=Surf-3, project orientation=NO
*End Assembly
** 
** MATERIALS
** 
*Material, name=Material-1
*Elastic
 1e+09, 0.3
** 
** BOUNDARY CONDITIONS
** 
** Name: BC-1 Type: Displacement/Rotation
*Boundary
Set-2, 1, 1
Set-2, 2, 2
Set-2, 3, 3
Set-2, 4, 4
Set-2, 5, 5
Set-2, 6, 6
** ----------------------------------------------------------------
** 
** STEP: Step-1
** 
*Initial Conditions, Type=Stress, User
*Step, name=Step-1, nlgeom=NO
*Static
1., 1., 1e-05, 1.
** 
** OUTPUT REQUESTS
** 
*Restart, write, frequency=0
** 
** FIELD OUTPUT: F-Output-1
** 
*Output, field, variable=PRESELECT
** 
** HISTORY OUTPUT: H-Output-2
** 
*Output, history
*Integrated Output, section=I-Section-1
SOF, SOM
** 
** HISTORY OUTPUT: H-Output-3
** 
*Integrated Output, section=I-Section-2
SOF, SOM
** 
** HISTORY OUTPUT: H-Output-4
** 
*Integrated Output, section=I-Section-3
SOF, SOM
** 
** HISTORY OUTPUT: H-Output-1
** 
*Output, history, variable=PRESELECT
*End Step
