*Heading
** Job name: Job-1 Model name: Model-1
** Generated by: Abaqus/CAE 2023
*Preprint, echo=NO, model=NO, history=NO, contact=NO
**
** PARTS
**
*Part, name=Post_Tool_Pass_1
*End Part
**  
**
** ASSEMBLY
**
*Assembly, name=Assembly
**  
*Instance, name=Post_Tool_Pass_1, part=Post_Tool_Pass_1
*Node
      1,          40., -6.54630909e-08, -1.00136148e-07
      2, 1.76741864e-07, -1.95908036e-08, 5.185424e-08
      3,           0.,          10.,           0.
      4,          40.,          10.,           0.
      5,           0.,          10.,          40.
      6,          40.,          10.,          40.
      7, 6.89204626e-07, -2.75511329e-08,   30.7692299
      8,          20., -4.73079744e-08,   15.3846149
      9,          40.,          10.,         100.
     10,          40.,           7.,         100.
     11,          40., -2.50530718e-07,   92.3076935
     12,          40.,          10.,          80.
     13,          40., -6.67293307e-07,   153.846161
     14,          40., -4.22502069e-07,    123.07692
     15,          40., -8.94350975e-08,   30.7692299
     16,          40.,   8.99999905,         215.
     17,          40., -1.15862872e-06,   215.384613
     18,          40., -9.94474476e-07,   184.615387
     19,          40.,           5.,          40.
     20,          40., -1.96866694e-07,   61.5384598
** ... 75 like lines cut
*Element, type=C3D4
  1, 55, 48, 56, 93
  2, 90, 94, 93, 14
  3, 48, 49, 90, 52
  4, 50, 90, 58, 56
  5, 56, 90, 58, 93
  6, 84, 35, 90, 14
  7, 33, 80, 78, 79
  8, 83, 81, 82, 32
  9, 79, 33, 26, 78
 10, 79, 24, 76, 26
 11, 92, 25, 22, 24
 12, 74, 22, 25, 73
 13, 76, 92, 75, 74
 14, 79, 76, 77, 78
 15, 75, 77, 27, 24
 16, 73, 72, 68, 69
 17, 92, 22, 25, 74
 18, 72, 88, 69, 73
 19, 71, 67, 70, 69
 20, 72, 70, 69, 71
** ... 172 like lines cut
*Nset, nset=simple_set, generate
  1,  95,   1
*Elset, elset=simple_set, generate
   1,  192,    1
** Section: Section-1
*Solid Section, elset=simple_set, material=MATERIAL-1
0.,
*End Instance
**  
*Nset, nset=_PickedSet7, internal, instance=Post_Tool_Pass_1, generate
 3,  6,  1
*Elset, elset=_PickedSet7, internal, instance=Post_Tool_Pass_1
 182, 189
*Nset, nset=_PickedSet9, internal, instance=Post_Tool_Pass_1
 26, 32, 78, 81
*Elset, elset=_PickedSet9, internal, instance=Post_Tool_Pass_1
 112, 114
*End Assembly
** 
** MATERIALS
** 
*Material, name=MATERIAL-1
*Elastic
 1e+10, 0.3
** 
** BOUNDARY CONDITIONS
** 
** Name: Boundary_Condition_0 Type: Displacement/Rotation
*Boundary
_PickedSet7, 1, 1
_PickedSet7, 2, 2
_PickedSet7, 3, 3
_PickedSet7, 4, 4
_PickedSet7, 5, 5
_PickedSet7, 6, 6
** Name: Boundary_Condition_1 Type: Displacement/Rotation
*Boundary
_PickedSet9, 1, 1
_PickedSet9, 2, 2
_PickedSet9, 3, 3
_PickedSet9, 4, 4
_PickedSet9, 5, 5
_PickedSet9, 6, 6
** ----------------------------------------------------------------
** 
** STEP: Equilibrium2
** 
*Initial Conditions, Type=Stress
*External Field, File=/home/andlars/Desktop/RS_TP_Adaptation/experiments/experiments/test_initial_geometry_cae/commit_1/Job-2.sim
 , , , , ,S, , 
*Step, name=Equilibrium2, nlgeom=NO
*Static
1., 1., 1e-05, 1.
** 
** OUTPUT REQUESTS
** 
*Restart, write, frequency=0
** 
** FIELD OUTPUT: F-Output-1
** 
*Output, field, variable=PRESELECT
** 
** HISTORY OUTPUT: H-Output-1
** 
*Output, history, variable=PRESELECT
*End Step
