*Heading
** Job name: Job-1 Model name: Model-1
** Generated by: Abaqus/CAE 2024
*Preprint, echo=NO, model=NO, history=NO, contact=NO
**
** PARTS
**
*Part, name=Part-1
*End Part
**  
**
** ASSEMBLY
**
*Assembly, name=Assembly
**  
*Instance, name=Part-1-1, part=Part-1
*Node
      1,          15.,          15.,          20.
      2,          15.,           0.,          20.
      3,          15.,           0.,           0.
      4,          15.,          15.,           0.
      5,           0.,           0.,          20.
      6,           0.,           0.,           0.
      7,           0.,          15.,           0.
      8,           0.,          15.,          20.
      9,          15.,          14.,          20.
     10,          15.,          13.,          20.
     11,          15.,          12.,          20.
     12,          15.,          11.,          20.
     13,          15.,          10.,          20.
     14,          15.,           9.,          20.
     15,          15.,           8.,          20.
     16,          15.,           7.,          20.
     17,          15.,           6.,          20.
     18,          15.,           5.,          20.
     19,          15.,           4.,          20.
     20,          15.,           3.,          20.
** ... 36803 like lines cut
*Element, type=C3D10
    1,  1653,  1654,  1655,  1656,  5033,  5032,  5031,  5035,  5034,  5036
    2,  1653,  1657,  1655,  1658,  5038,  5037,  5031,  5040,  5039,  5041
    3,  1653,  1655,  1659,  1658,  5031,  5043,  5042,  5040,  5041,  5044
    4,  1653,  1654,  1656,  1660,  5033,  5034,  5035,  5046,  5045,  5047
    5,  1653,  1660,  1661,  1662,  5046,  5049,  5048,  5051,  5050,  5052
    6,  1653,  1663,  1664,  1659,  5055,  5054,  5053,  5042,  5056,  5057
    7,   740,  1665,  1666,  1667,  5060,  5059,  5058,  5062,  5061,  5063
    8,  1664,  1659,  1668,  1662,  5057,  5065,  5064,  5067,  5066,  5068
    9,  1669,  1654,  1670,  1671,  5071,  5070,  5069,  5073,  5072,  5074
   10,  1654,  1671,  1669,  1663,  5072,  5073,  5071,  5076,  5075,  5077
   11,  1653,  1663,  1654,  1662,  5055,  5076,  5033,  5051,  5078,  5079
   12,  1654,  1672,  1673,  1663,  5082,  5081,  5080,  5076,  5083,  5084
   13,  1654,  1671,  1674,  1670,  5072,  5086,  5085,  5070,  5074,  5087
   14,  1654,  1674,  1673,  1675,  5085,  5088,  5080,  5090,  5089,  5091
   15,  1676,  1677,  1678,  1679,  5094,  5093,  5092,  5096,  5095,  5097
   16,   361,  1680,   360,  1681,  5100,  5099,  5098,  5102,  5101,  5103
   17,  1676,  1682,  1683,  1679,  5106,  5105,  5104,  5096,  5107,  5108
   18,  1676,  1684,  1685,  1686,  5111,  5110,  5109,  5113,  5112,  5114
   19,  1676,  1685,  1684,  1677,  5109,  5110,  5111,  5094,  5115,  5116
   20,  1676,  1677,  1687,  1685,  5094,  5118,  5117,  5109,  5115,  5119
** ... 25094 like lines cut
*Nset, nset=Set-1, generate
     1,  36823,      1
*Elset, elset=Set-1, generate
     1,  25114,      1
** Section: Section-1
*Solid Section, elset=Set-1, material=Material-1
,
*End Instance
**  
*Nset, nset=Set-1, instance=Part-1-1
     1,     2,     5,     8,     9,    10,    11,    12,    13,    14,    15,    16,    17,    18,    19,    20
    21,    22,    75,    76,    77,    78,    79,    80,    81,    82,    83,    84,    85,    86,    87,    88
   150,   151,   152,   153,   154,   155,   156,   157,   158,   159,   160,   161,   162,   163,   183,   184
   185,   186,   187,   188,   189,   190,   191,   192,   193,   194,   195,   196,  1191,  1192,  1193,  1194
  1195,  1196,  1197,  1198,  1199,  1200,  1201,  1202,  1203,  1204,  1205,  1206,  1207,  1208,  1209,  1210
  1211,  1212,  1213,  1214,  1215,  1216,  1217,  1218,  1219,  1220,  1221,  1222,  1223,  1224,  1225,  1226
  1227,  1228,  1229,  1230,  1231,  1232,  1233,  1234,  1235,  1236,  1237,  1238,  1239,  1240,  1241,  1242
  1243,  1244,  1245,  1246,  1247,  1248,  1249,  1250,  1251,  1252,  1253,  1254,  1255,  1256,  1257,  1258
  1259,  1260,  1261,  1262,  1263,  1264,  1265,  1266,  1267,  1268,  1269,  1270,  1271,  1272,  1273,  1274
  1275,  1276,  1277,  1278,  1279,  1280,  1281,  1282,  1283,  1284,  1285,  1286,  1287,  1288,  1289,  1290
  1291,  1292,  1293,  1294,  1295,  1296,  1297,  1298,  1299,  1300,  1301,  1302,  1303,  1304,  1305,  1306
  1307,  1308,  1309,  1310,  1311,  1312,  1313,  1314,  1315,  1316,  1317,  1318,  1319,  1320,  1321,  1322
  1323,  1324,  1325,  1326,  1327,  1328,  1329,  1330,  1331,  1332,  1333,  1334,  1335,  1336,  1337,  1338
  1339,  1340,  1341,  1342,  1343,  1344,  1345,  1346,  1347,  1348,  1349,  1350,  1351,  1352,  1353,  1354
  1355,  1356,  1357,  1358,  1359,  1360,  1361,  1362,  1363,  1364,  1365,  1366,  1367,  1368,  1369,  1370
  1371,  1372,  1373,  1374,  1375,  1376,  1377,  1378,  1379,  1380,  1381,  1382,  1383,  1384,  1385,  1386
  6649,  6651,  6653,  7340, 10173, 10337, 10477, 10479, 10481, 10528, 10911, 10913, 10915, 11215, 11217, 11219
 11221, 11223, 11368, 11402, 11463, 11471, 11473, 11475, 11645, 11647, 11649, 11673, 11675, 11677, 11832, 11834
 12037, 12039, 12058, 12060, 12062, 12065, 12066, 12068, 12083, 12085, 12087, 12106, 12108, 12110, 12280, 12282
 12284, 12289, 12291, 12293, 12305, 12307, 12309, 12338, 12401, 12433, 12435, 12437, 12656, 12658, 12660, 12699
** ... 41 like lines cut
*Elset, elset=Set-1, instance=Part-1-1
   519,  2164,  2333,  2443,  2446,  2528,  2571,  2579,  2614,  2676,  2681,  2683,  2688,  2694,  2742,  2744
  2748,  2779,  2840,  2855,  2857,  2867,  2871,  2904,  2919,  2938,  2984,  2990,  3048,  3101,  3165,  3184
  3227,  3240,  3283,  3299,  3316,  3321,  3375,  3389,  3397,  3423,  3483,  3687,  4586,  4605,  4608,  4621
  4633,  4642,  4670,  4671,  4700,  4723,  4740,  4772,  4774,  4796,  4828,  4848,  4857,  4860,  4895,  4947
  5113,  5193,  5232,  5234,  5240,  5289,  5474,  5482,  5527,  5531,  6274,  6547,  6970,  7576,  7584,  7589
  7592,  7608,  7613,  7627,  7636,  7642,  7675,  7704,  7716,  7758,  7759,  7766,  7781,  7818,  7820,  7837
  7840,  7850,  7853,  7856,  7863,  7890,  7909,  7911,  7987,  7998,  9127,  9189,  9203,  9206,  9219,  9239
  9252,  9272,  9275,  9291,  9301,  9337,  9344,  9364,  9369,  9381,  9382,  9384,  9385,  9388,  9393,  9399
  9400,  9408,  9412,  9414,  9417,  9418,  9439,  9449,  9454,  9458,  9465,  9467,  9472,  9476,  9479,  9481
  9513,  9526,  9527,  9531,  9538,  9539,  9542,  9546,  9551,  9554,  9559,  9568,  9569,  9570,  9571,  9572
  9583,  9586,  9589,  9598,  9600,  9608,  9615,  9618,  9626,  9655,  9663,  9666,  9671,  9672,  9673,  9674
  9677,  9685,  9687,  9691,  9692,  9694,  9698,  9701,  9703,  9704,  9707,  9709,  9723,  9729,  9730,  9734
  9736,  9742,  9754,  9758,  9759,  9763,  9767,  9771,  9774,  9775,  9786,  9789,  9793,  9799,  9801,  9803
  9807,  9810,  9819,  9822,  9828,  9832,  9835,  9836,  9842,  9846,  9847,  9848,  9858,  9865,  9867,  9869
  9878,  9881,  9884,  9895,  9899,  9902,  9903,  9904,  9908,  9910,  9917,  9923,  9931,  9937,  9945,  9948
  9951,  9954,  9956,  9972,  9975,  9984, 10008, 10015, 10022, 10030, 10031, 10039, 10043, 10048, 10051, 10056
 10065, 10066, 10067, 10071, 10082, 10092, 10096, 10098, 10104, 10107, 10109, 10112, 10120, 10121, 10122, 10123
 10132, 10133, 10136, 10140, 10141, 10150, 10153, 10161, 10169, 10175, 10179, 10186, 10189, 10199, 10200, 10203
 10211, 10215, 10220, 10221, 10231, 10233, 10239, 10243, 10248, 10249, 10260, 10262, 10265, 10269, 10271, 10278
 10280, 10281, 10292, 10299, 10301, 10307, 10312, 10314, 10318, 10322, 10327, 10329, 10330, 10333, 10335, 10339
** ... 9 like lines cut
*Elset, elset=_Surf-1_S2, internal, instance=Part-1-1
   105,  1065,  4375,  6365,  6551,  6581,  6780,  6938,  8395,  8746, 11765, 12348
*Elset, elset=_Surf-1_S3, internal, instance=Part-1-1
   298,  1172,  1234,  2316,  2476,  2564,  2572,  2664,  2706,  2707,  2712,  2713,  2716,  2720,  2778,  2808
  2812,  2822,  3653,  3709,  3774,  3840,  3930,  3962,  3972,  4017,  4098,  4105,  4173,  4189,  4201,  4244
  4245,  4335,  4369,  4379,  4380,  4402,  4417,  4434,  4499,  4500,  4507,  4510,  4517,  4530,  4534,  4546
  4556,  5432,  5444,  5449,  5491,  5619,  5669,  5719,  5754,  5779,  5782,  5789,  5860,  5872,  5914,  5915
  5936,  5974,  5981,  6003,  6006,  6014,  6048,  6063,  6093,  6098,  6118,  6144,  6180,  6205,  6221,  6224
  6232,  6256,  6263,  6287,  6294,  6302,  6305,  6312,  6333,  6337,  6346,  6355,  6357,  6358,  6366,  6389
  6392,  6408,  6417,  6430,  6436,  6444,  6445,  6459,  6466,  6467,  6473,  6474,  6476,  6477,  6478,  6481
  6491,  6493,  6505,  6506,  6509,  6512,  6515,  6516,  6542,  6544,  6550,  6568,  6572,  6575,  6579,  6585
  6618,  6621,  6625,  6633,  6635,  6638,  6645,  6647,  6648,  6657,  6662,  6666,  6668,  6669,  6674,  6680
  6686,  6691,  6703,  6712,  6720,  6721,  6725,  6728,  6744,  6746,  6757,  6765,  6776,  6798,  6807,  6808
  6811,  6821,  6828,  6831,  6834,  6847,  6849,  6858,  6861,  6864,  6865,  6875,  6879,  6888,  6893,  6894
  6902,  6903,  6906,  6913,  6914,  6926,  6929,  6931,  6937,  6941,  6946,  6951,  6957,  6958,  6966,  6976
  6979,  6985,  6986,  6989,  6996,  7001,  7004,  7008,  7015,  7021,  7025,  7029,  7030,  7037,  7043,  7045
  7046,  7050,  7053,  7059,  7063,  7066,  7069,  7072,  7080,  7084,  7092,  7098,  7100,  7117,  7125,  7134
  7138,  7139,  7150,  7164,  7170,  7178,  7192,  7196,  7205,  7206,  7210,  7224,  7226,  7238,  7241,  7246
  7261,  7282,  7285,  7288,  7300,  7309,  7311,  7326,  7334,  7341,  7342,  7363,  7366,  7368,  7385,  7390
  7398,  7403,  7406,  7408,  7415,  7420,  7431,  7436,  7439,  7444,  7461,  7462,  7474,  7476,  7487,  7504
  7507,  7522,  7526,  8078,  8109,  8142,  8206,  8370,  8456,  8467,  8484,  8486,  8544,  8545,  8572,  8574
  8597,  8606,  8631,  8646,  8647,  8653,  8674,  8679,  8692,  8728,  8745,  8748,  8752,  8819,  8821,  8823
  8824,  8829,  8847,  8852,  8853,  8932,  8937,  8981,  9026,  9037,  9062,  9067,  9081,  9099,  9114,  9159
** ... 7 like lines cut
*Elset, elset=_Surf-1_S4, internal, instance=Part-1-1
  4186,  4192,  6284,  6943, 13512, 13747, 15865, 15989, 22384
*Elset, elset=_Surf-1_S1, internal, instance=Part-1-1
  5727, 11623, 12350, 12464
*Surface, type=ELEMENT, name=Surf-1
_Surf-1_S2, S2
_Surf-1_S3, S3
_Surf-1_S4, S4
_Surf-1_S1, S1
*End Assembly
** 
** MATERIALS
** 
*Material, name=Material-1
*Density
0.,
*Elastic
 1e+09, 0.3
** 
** BOUNDARY CONDITIONS
** 
** Name: BC-1 Type: Symmetry/Antisymmetry/Encastre
*Boundary
Set-1, ENCASTRE
** ----------------------------------------------------------------
** 
** STEP: Step-1
** 
*Step, name=Step-1, nlgeom=NO
*Static
1., 1., 1e-05, 1.
** 
** LOADS
** 
** Name: Load-1   Type: Surface traction
*Dsload
Surf-1, TRSHR, 10000., 0., -1., 0.
** 
** OUTPUT REQUESTS
** 
*Restart, write, frequency=0
** 
** FIELD OUTPUT: F-Output-1
** 
*Output, field, variable=PRESELECT
** 
** HISTORY OUTPUT: H-Output-1
** 
*Output, history, variable=PRESELECT
*End Step
