*Heading
** Job name: Job-1 Model name: Model-1
** Generated by: Abaqus/CAE 2024
*Preprint, echo=NO, model=NO, history=NO, contact=NO
**
** PARTS
**
*Part, name=Post_Tool_Pass_1
*End Part
**  
**
** ASSEMBLY
**
*Assembly, name=Assembly
**  
*Instance, name=Post_Tool_Pass_1, part=Post_Tool_Pass_1
*Node
      1,           0.,           5.,   88.9765778
      2,           0.,           5.,   91.0466156
      3,      29.3097,           5.,   150.723526
      4,      30.6903,           5.,   149.276474
      5,           0.,          10.,   91.0466156
      6,      29.3097,          10.,   150.723526
      7,      30.6903,          10.,   149.276474
      8,           0.,          10.,   88.9765778
      9,           0.,          10.,          40.
     10,           0.,          10.,           0.
     11,           0.,           0.,           0.
     12,           0.,           0.,         400.
     13,           0.,          10.,         400.
     14,           0.,          10.,         360.
     15,          40.,          10.,         360.
     16,          40.,          10.,         400.
     17,          40.,          10.,          40.
     18,          40.,          10.,           0.
     19,          40.,           0.,           0.
     20,          40.,           0.,         400.
** ... 623 like lines cut
*Element, type=C3D4
   1, 485, 486, 487, 488
   2,  84, 489,  85, 490
   3, 491, 492,  80,  81
   4, 488, 493,  80,  79
   5, 488, 485, 494, 492
   6, 495, 492, 494, 496
   7, 497, 498, 488, 494
   8, 488, 486, 494, 485
   9, 494, 499, 495, 500
  10, 494, 499, 498, 495
  11, 501, 495, 502, 496
  12, 139, 142, 468, 460
  13,  73, 338,  35, 353
  14, 495, 499, 498, 503
  15, 495, 504, 505, 501
  16, 499, 497, 500, 494
  17, 506, 507, 508, 509
  18, 510, 511, 512, 513
  19, 514, 513, 515, 511
  20, 514, 516, 517, 518
** ... 2153 like lines cut
*Nset, nset=simple_set, generate
   1,  643,    1
*Elset, elset=simple_set, generate
    1,  2173,     1
** Section: Section-1
*Solid Section, elset=simple_set, material=Material-1
,
*End Instance
**  
*Nset, nset=_PickedSet13, internal, instance=Post_Tool_Pass_1
   9,  10,  17,  18, 102, 157, 158, 159, 465
*Elset, elset=_PickedSet13, internal, instance=Post_Tool_Pass_1
 1045, 1046, 1049, 1051, 1643, 1644, 1721, 2159
*Nset, nset=_PickedSet20, internal, instance=Post_Tool_Pass_1
  13,  14,  15,  16, 122, 139, 140, 141, 227
*Elset, elset=_PickedSet20, internal, instance=Post_Tool_Pass_1
  604, 1041, 1138, 1674, 1695, 1986, 1987, 2073
*End Assembly
** 
** MATERIALS
** 
*Material, name=Material-1
*Elastic
 1e+09, 0.3
** 
** BOUNDARY CONDITIONS
** 
** Name: Boundary_Condition_0 Type: Displacement/Rotation
*Boundary
_PickedSet13, 1, 1
_PickedSet13, 2, 2
_PickedSet13, 3, 3
_PickedSet13, 4, 4
_PickedSet13, 5, 5
_PickedSet13, 6, 6
** Name: Boundary_Condition_1 Type: Displacement/Rotation
*Boundary
_PickedSet20, 1, 1
_PickedSet20, 2, 2
_PickedSet20, 3, 3
_PickedSet20, 4, 4
_PickedSet20, 5, 5
_PickedSet20, 6, 6
** ----------------------------------------------------------------
** 
** STEP: Equilibrium2
** 
*Initial Conditions, Type=Stress, User
*Step, name=Equilibrium2, nlgeom=NO
*Static
1., 1., 1e-05, 1.
** 
** OUTPUT REQUESTS
** 
*Restart, write, frequency=0
** 
** FIELD OUTPUT: F-Output-1
** 
*Output, field, variable=PRESELECT
** 
** HISTORY OUTPUT: H-Output-1
** 
*Output, history, variable=PRESELECT
*End Step
