*Heading
** Job name: second_plan Model name: Model-1
** Generated by: Abaqus/CAE 2024
*Preprint, echo=NO, model=NO, history=NO, contact=NO
**
** PARTS
**
*Part, name=Post_Tool_Pass_1
*End Part
**  
**
** ASSEMBLY
**
*Assembly, name=Assembly
**  
*Instance, name=Post_Tool_Pass_1, part=Post_Tool_Pass_1
*Node
      1,           7.,           5.,         300.
      2,           3.,           5.,         200.
      3,           7.,          10.,         300.
      4,           3.,          10.,         200.
      5,           0.,          10.,          40.
      6,          40.,          10.,          40.
      7,          40.,          10.,           0.
      8,           0.,          10.,           0.
      9,           0.,          10.,         360.
     10,          40.,          10.,         360.
     11,           0.,          10.,         400.
     12,          40.,          10.,         400.
     13,          40.,           0.,         400.
     14,          40.,           0.,           0.
     15,           0.,           0.,           0.
     16,           0.,           0.,         400.
     17,           7.,           5.,   277.751587
     18,           7.,           5.,   255.503189
     19,           7.,           5.,   233.254791
     20,           7.,           5.,   215.889023
** ... 572 like lines cut
*Element, type=C3D4
   1, 450, 451, 384, 452
   2,  27, 453, 454, 455
   3, 450, 456, 334, 457
   4, 450, 457, 451, 458
   5, 459, 460, 461, 462
   6, 463, 464, 465, 466
   7, 467, 468, 469, 470
   8,  30, 469, 468, 471
   9, 459, 472, 473, 474
  10, 475, 476, 477, 459
  11, 475, 478,  36,  35
  12, 459, 475, 479, 480
  13, 481, 478,  36, 475
  14, 459, 481, 475, 476
  15, 482, 478,  36, 481
  16, 483, 484, 485, 486
  17, 483, 487, 488, 486
  18, 381, 486, 370, 487
  19, 489, 490, 485, 483
  20,  77, 478,  36, 482
** ... 1951 like lines cut
*Nset, nset=simple_set, generate
   1,  592,    1
*Elset, elset=simple_set, generate
    1,  1971,     1
** Section: Section-1
*Solid Section, elset=simple_set, material=Material-1
,
*End Instance
**  
*Nset, nset=_PickedSet13, internal, instance=Post_Tool_Pass_1
   5,   6,   7,   8, 101, 102, 103, 104, 230
*Elset, elset=_PickedSet13, internal, instance=Post_Tool_Pass_1
  846,  872, 1623, 1629, 1633, 1634, 1636, 1640
*Nset, nset=_PickedSet20, internal, instance=Post_Tool_Pass_1
   9,  10,  11,  12, 105, 136, 137, 138, 430
*Elset, elset=_PickedSet20, internal, instance=Post_Tool_Pass_1
  116,  827,  930,  932,  934,  937, 1829, 1892
*End Assembly
** 
** MATERIALS
** 
*Material, name=Material-1
*Elastic
 1e+09, 0.3
** 
** BOUNDARY CONDITIONS
** 
** Name: Boundary_Condition_0 Type: Displacement/Rotation
*Boundary
_PickedSet13, 1, 1
_PickedSet13, 2, 2
_PickedSet13, 3, 3
_PickedSet13, 4, 4
_PickedSet13, 5, 5
_PickedSet13, 6, 6
** Name: Boundary_Condition_1 Type: Displacement/Rotation
*Boundary
_PickedSet20, 1, 1
_PickedSet20, 2, 2
_PickedSet20, 3, 3
_PickedSet20, 4, 4
_PickedSet20, 5, 5
_PickedSet20, 6, 6
** ----------------------------------------------------------------
** 
** STEP: Equilibrium
** 
*Initial Conditions, Type=Stress, User
*Step, name=Equilibrium, nlgeom=NO
*Static
1., 1., 1e-05, 1.
** 
** OUTPUT REQUESTS
** 
*Restart, write, frequency=0
** 
** FIELD OUTPUT: F-Output-1
** 
*Output, field, variable=PRESELECT
** 
** HISTORY OUTPUT: H-Output-1
** 
*Output, history, variable=PRESELECT
*End Step
