*Heading
** Job name: second_plan Model name: Model-2
** Generated by: Abaqus/CAE 2024
*Preprint, echo=NO, model=NO, history=NO, contact=NO
**
** PARTS
**
*Part, name=Post_Tool_Pass_2
*End Part
**  
**
** ASSEMBLY
**
*Assembly, name=Assembly
**  
*Instance, name=Post_Tool_Pass_2, part=Post_Tool_Pass_2
*Node
      1,           0.,          10.,         400.
      2, 5.20000007e-08,           0.,         400.
      3,          40.,           0.,         400.
      4,          40.,          10.,         400.
      5,           5.,          10.,         302.
      6,           0.,          10.,         360.
      7,          40.,          10.,         360.
      8,           7.,          10.,         298.
      9,          35.,          10.,         302.
     10,          35.,          10.,         298.
     11,          40.,          10.,          40.
     12,           0.,          10.,          40.
     13,           0.,          10.,           0.
     14, 5.20000007e-08,           0.,           0.
     15,          40.,           0.,           0.
     16,          40.,          10.,           0.
     17,           5.,           5.,         302.
     18,          35.,           5.,         302.
     19,          35.,           5.,         298.
     20,           7.,           5.,         298.
** ... 900 like lines cut
*Element, type=C3D4
   1, 709, 710, 628, 711
   2, 711, 712, 713, 714
   3, 711, 715, 713, 712
   4, 713, 716, 717, 711
   5, 718, 719, 408, 380
   6, 711, 717, 713, 720
   7, 711, 721, 717, 720
   8, 710, 713, 720, 711
   9, 101, 722, 100, 723
  10,  99, 184, 724, 100
  11, 100, 725, 723, 722
  12, 724, 725, 100, 722
  13,  97, 726,  98, 727
  14, 728, 722, 725, 729
  15, 723, 722, 725, 728
  16, 286, 730, 287, 731
  17, 724, 729, 731, 725
  18, 732, 733, 734, 735
  19, 735, 736, 737, 738
  20, 735, 732, 739, 734
** ... 3025 like lines cut
*Nset, nset=simple_set, generate
   1,  920,    1
*Elset, elset=simple_set, generate
    1,  3045,     1
** Section: Section-1
*Solid Section, elset=simple_set, material=Material-1
,
*End Instance
**  
*Nset, nset=_PickedSet12, internal, instance=Post_Tool_Pass_2
  11,  12,  13,  16, 102, 104, 145, 194, 708
*Elset, elset=_PickedSet12, internal, instance=Post_Tool_Pass_2
  237,  290,  381, 2231, 2857, 2871, 2889, 3028
*Nset, nset=_PickedSet18, internal, instance=Post_Tool_Pass_2
   1,   4,   6,   7,  22,  74, 103, 144, 471
*Elset, elset=_PickedSet18, internal, instance=Post_Tool_Pass_2
  494,  820, 1729, 1841, 1854, 1982, 2628, 2808
*End Assembly
** 
** MATERIALS
** 
*Material, name=Material-1
*Elastic
 1e+09, 0.3
** 
** BOUNDARY CONDITIONS
** 
** Name: Boundary_Condition_0 Type: Displacement/Rotation
*Boundary
_PickedSet12, 1, 1
_PickedSet12, 2, 2
_PickedSet12, 3, 3
_PickedSet12, 4, 4
_PickedSet12, 5, 5
_PickedSet12, 6, 6
** Name: Boundary_Condition_1 Type: Displacement/Rotation
*Boundary
_PickedSet18, 1, 1
_PickedSet18, 2, 2
_PickedSet18, 3, 3
_PickedSet18, 4, 4
_PickedSet18, 5, 5
_PickedSet18, 6, 6
** ----------------------------------------------------------------
** 
** STEP: Deform_Due_To_Material_Removal
** 
*Initial Conditions, Type=Stress
*External Field, File=second_plan.sim
 , , , , ,S, , 
*Step, name=Deform_Due_To_Material_Removal, nlgeom=NO
*Static
1., 1., 1e-05, 1.
** 
** OUTPUT REQUESTS
** 
*Restart, write, frequency=0
** 
** FIELD OUTPUT: F-Output-1
** 
*Output, field, variable=PRESELECT
** 
** HISTORY OUTPUT: H-Output-1
** 
*Output, history, variable=PRESELECT
*End Step
