*Heading
** Job name: Job-2 Model name: Model-2
** Generated by: Abaqus/CAE 2023
*Preprint, echo=NO, model=NO, history=NO, contact=NO
**
** PARTS
**
*Part, name=Post_Tool_Pass_1
*End Part
**  
**
** ASSEMBLY
**
*Assembly, name=Assembly
**  
*Instance, name=Post_Tool_Pass_1, part=Post_Tool_Pass_1
*Node
      1,           0.,          10.,           0.
      2,          40.,          10.,           0.
      3,          40.,           0.,           0.
      4,           0.,           0.,           0.
      5,          40.,           0.,         400.
      6,           0.,           0.,         400.
      7,           0.,           5.,          40.
      8,           0.,          10.,          40.
      9,           0.,          10.,         215.
     10,           0.,           9.,         215.
     11,           0.,          10.,         400.
     12,           0.,          10.,         360.
     13,           0.,           9.,         185.
     14,           0.,          10.,         185.
     15,           0.,          10.,          80.
     16,           0.,           5.,          80.
     17,          40.,          10.,          40.
     18,          40.,           5.,          40.
     19,          40.,          10.,         360.
     20,          40.,           9.,         185.
** ... 55 like lines cut
*Element, type=C3D4
  1, 65,  5, 26, 11
  2, 65,  5, 11,  6
  3, 65, 26, 38, 19
  4, 12, 19, 11, 39
  5, 19, 11, 39, 65
  6, 65,  6, 11, 39
  7, 65, 26, 19, 11
  8, 36, 40, 61, 66
  9, 66, 40, 51, 41
 10, 36, 52, 41, 66
 11, 66, 61, 52, 51
 12, 67, 52, 41, 36
 13, 54, 68, 34, 58
 14, 68, 42, 34, 35
 15, 67, 42, 53, 59
 16, 68, 58, 54, 59
 17, 34, 54, 69, 43
 18, 68, 59, 54, 53
 19, 55, 64, 70, 46
 20, 71, 46, 56, 47
** ... 134 like lines cut
*Nset, nset=simple_set, generate
  1,  75,   1
*Elset, elset=simple_set, generate
   1,  154,    1
** Section: Section-ASSEMBLY_POST_TOOL_PASS_1_SIMPLE_SET
*Solid Section, elset=simple_set, material=MATERIAL-1
0.,
*End Instance
**  
*Nset, nset=_PickedSet18, internal, instance=Post_Tool_Pass_1
  1,  2,  8, 17
*Elset, elset=_PickedSet18, internal, instance=Post_Tool_Pass_1
 27, 31
*Nset, nset=_PickedSet20, internal, instance=Post_Tool_Pass_1
 11, 12, 19, 26
*Elset, elset=_PickedSet20, internal, instance=Post_Tool_Pass_1
 4, 7
*End Assembly
** 
** MATERIALS
** 
*Material, name=MATERIAL-1
*Elastic
 1.9e+11, 0.3
** 
** PHYSICAL CONSTANTS
** 
*Physical Constants, absolute zero=0., stefan boltzmann=0.
** 
** BOUNDARY CONDITIONS
** 
** Name: Boundary_Condition_0 Type: Displacement/Rotation
*Boundary
_PickedSet18, 1, 1
_PickedSet18, 2, 2
_PickedSet18, 3, 3
_PickedSet18, 4, 4
_PickedSet18, 5, 5
_PickedSet18, 6, 6
** Name: Boundary_Condition_1 Type: Displacement/Rotation
*Boundary
_PickedSet20, 1, 1
_PickedSet20, 2, 2
_PickedSet20, 3, 3
_PickedSet20, 4, 4
_PickedSet20, 5, 5
_PickedSet20, 6, 6
** ----------------------------------------------------------------
** 
** STEP: Equilibrium2
** 
*Initial Conditions, Type=Stress
*External Field, File=Job-1.sim
 , , , , ,S, , 
*Step, name=Equilibrium2, nlgeom=NO
*Static
1., 1., 1e-05, 1.
** 
** OUTPUT REQUESTS
** 
*Restart, write, frequency=0
** 
** FIELD OUTPUT: F-Output-1
** 
*Output, field, variable=PRESELECT
** 
** HISTORY OUTPUT: H-Output-1
** 
*Output, history, variable=PRESELECT
*End Step
