*Heading
** Job name: Job-1 Model name: Model-1
** Generated by: Abaqus/CAE 2023
*Preprint, echo=NO, model=NO, history=NO, contact=NO
**
** PARTS
**
*Part, name=Post_Tool_Pass_1
*End Part
**  
**
** ASSEMBLY
**
*Assembly, name=Assembly
**  
*Instance, name=Post_Tool_Pass_1, part=Post_Tool_Pass_1
*Node
      1,           0.,          10.,         215.
      2,           0.,           9.,         215.
      3,           0.,           9.,         185.
      4,           0.,          10.,         185.
      5,           0.,          10.,          40.
      6,           0.,          10.,           0.
      7,           0.,           0.,           0.
      8,           0.,           0.,         400.
      9,           0.,          10.,         400.
     10,           0.,          10.,         360.
     11,          40.,           9.,         215.
     12,          40.,           9.,         185.
     13,          40.,          10.,         185.
     14,          40.,          10.,          40.
     15,          40.,          10.,           0.
     16,          40.,           0.,           0.
     17,          40.,           0.,         400.
     18,          40.,          10.,         400.
     19,          40.,          10.,         360.
     20,          40.,          10.,         215.
** ... 53 like lines cut
*Element, type=C3D4
  1, 61, 35, 37, 57
  2, 35, 55, 57, 61
  3, 61, 55, 19, 56
  4, 61, 37, 35, 10
  5, 36, 19, 10, 62
  6, 61, 19, 10, 36
  7, 48, 22, 42, 63
  8, 64, 22, 42, 48
  9, 65, 27, 47, 43
 10, 63, 23, 43, 27
 11, 63, 22, 43, 23
 12, 63, 47, 43, 48
 13, 66, 39, 32, 33
 14, 67, 59, 53, 33
 15, 40, 52, 31, 68
 16, 59, 39, 33, 67
 17, 60, 40, 68, 52
 18, 66, 59, 60, 39
 19, 66, 39, 33, 59
 20, 69, 58, 54, 34
** ... 141 like lines cut
*Nset, nset=simple_set, generate
  1,  73,   1
*Elset, elset=simple_set, generate
   1,  161,    1
** Section: Section-1
*Solid Section, elset=simple_set, material=Material-1
,
*End Instance
**  
*Nset, nset=_PickedSet8, internal, instance=Post_Tool_Pass_1
  5,  6, 14, 15
*Elset, elset=_PickedSet8, internal, instance=Post_Tool_Pass_1
  96, 115
*Nset, nset=_PickedSet10, internal, instance=Post_Tool_Pass_1
  9, 10, 18, 19
*Elset, elset=_PickedSet10, internal, instance=Post_Tool_Pass_1
  27, 149
*End Assembly
** 
** MATERIALS
** 
*Material, name=Material-1
*Elastic
 1e+10, 0.3
** 
** BOUNDARY CONDITIONS
** 
** Name: Boundary_Condition_0 Type: Displacement/Rotation
*Boundary
_PickedSet8, 1, 1
_PickedSet8, 2, 2
_PickedSet8, 3, 3
_PickedSet8, 4, 4
_PickedSet8, 5, 5
_PickedSet8, 6, 6
** Name: Boundary_Condition_1 Type: Displacement/Rotation
*Boundary
_PickedSet10, 1, 1
_PickedSet10, 2, 2
_PickedSet10, 3, 3
_PickedSet10, 4, 4
_PickedSet10, 5, 5
_PickedSet10, 6, 6
** ----------------------------------------------------------------
** 
** STEP: Equilibrium2
** 
*Initial Conditions, Type=Stress, User
*Step, name=Equilibrium2, nlgeom=NO
*Static
1., 1., 1e-05, 1.
** 
** OUTPUT REQUESTS
** 
*Restart, write, frequency=0
** 
** FIELD OUTPUT: F-Output-1
** 
*Output, field, variable=PRESELECT
** 
** HISTORY OUTPUT: H-Output-1
** 
*Output, history, variable=PRESELECT
*End Step
