1

   Abaqus 2022                                  Date 03-Jan-2023   Time 01:46:51
   For use by UNIVERSITY OF MICHIGAN under license from Dassault Systemes or its subsidiary.



                         The Abaqus Software is a product of:

                           Dassault Systemes SIMULIA Corp.
                           1301 Atwood Avenue, Suite 101W
                              Johnston, RI 02919, USA
 


                   The Abaqus Software is available only under license
                   from Dassault Systemes or its subsidiary and may be
                   used or reproduced only in accordance with the terms
                   of such license.
 
                          On machine caen-vdi22hp-27 
                          you are authorized to run
                          Abaqus/Standard until 31-Jul-2023

                          Your site id is: 200000000004058 


 
                    For assistance or any other information you may
                    obtain contact information for your local office
                    from the world wide web at:

                      http://www.3ds.com/products/simulia/locations/

 
                * * * * * * * * * * * * * * * * * * * * * * * * * * * * * * 
                *                                                         * 
                *                   *****************                     * 
                *                   *  N O T I C E  *                     * 
                *                   *****************                     * 
                *                                                         * 
                *                                                         * 
                *                       Abaqus 2022                       * 
                *                                                         * 
                *          BUILD ID: 2021_09_15-10.57.30 176069           * 
                *                                                         * 
                *                                                         * 
                *  Please make sure you are using                         * 
                *  release Abaqus 2022 manuals                            * 
                *  plus the notes accompanying this release.              * 
                *                                                         * 
                *                                                         * 
                *                                                         * 
                *                                                         * 
                *                                                         * 
                *   This program may not be used for commercial purposes  * 
                *           without payment of a commercial fee.          * 
                *                                                         * 
                * * * * * * * * * * * * * * * * * * * * * * * * * * * * * * 


 



     PROCESSING PART, INSTANCE, AND ASSEMBLY INFORMATION
   *******************************************************


     END PROCESSING PART, INSTANCE, AND ASSEMBLY INFORMATION
   ***********************************************************

  *initialconditions, type=STRESS



     OPTIONS BEING PROCESSED
   ***************************


  *Heading
  *Node
  *Element, type=C3D8
  *Nset, nset=ASSEMBLY_PART-1-1_SET-1
  *Elset, elset=ASSEMBLY_PART-1-1_SET-1
  *Nset, nset=ASSEMBLY__PICKEDSET4
  *Elset, elset=ASSEMBLY__PICKEDSET4
  *material, name=GENERIC_METAL
  *elastic
  *initialconditions, type=STRESS
  *solidsection, elset=ASSEMBLY_PART-1-1_SET-1, material=GENERIC_METAL
  *solidsection, elset=ASSEMBLY_PART-1-1_SET-1, material=GENERIC_METAL
  *initialconditions, type=STRESS
  *initialconditions, type=STRESS
  *initialconditions, type=STRESS
  *initialconditions, type=STRESS
  *Step, name=Matrix_Gen2
  *Step, name=Step-1, nlgeom=NO
  *Step, name=Matrix_Gen2
  *Step, name=Step-1, nlgeom=NO
  *Step, name=Matrix_Gen2
  *matrixgenerate, stiffness
  *matrixoutput, stiffness, format=COORDINATE
  *endstep
  *Step, name=Step-1, nlgeom=NO
  Achieve Equilibrium                                                             
  *static
  *nodeprint
  *endstep
  *Step, name=Matrix_Gen2
  *endstep
  *Step, name=Step-1, nlgeom=NO
  *static
  *endstep


                              E L E M E N T,   N O D E,   A N D   S U R F A C E   M A P S


**NOTE: This section may not include complete information about
        members of sets and surfaces. Use *PREPRINT, MODEL=YES 
        in order to get the set and surface members printed    
        under the following sections:                          
            - E L E M E N T   S E T S                          
            - N O D E   S E T S                                
            - S U R F A C E   D E F I N I T I O N S .          


Assembly name: ASSEMBLY
Number of instances: 1

ASSEMBLY LEVEL
  node sets:

  element sets:

  Surfaces:

INSTANCE LEVEL
  node sets:
    Instance name: PART-1-1
      node set name: SET-1
        number of nodes: 2187
        nodes: 
          1 2 3 4 5 6 7 8 9 10 11 12 13 14 15 16 17 18 19 20 21 22 23 24
          25 26 27 28 29 30 31 32 33 34 35 36 37 38 39 40 41 42 43 44 45
          46 47 48 49 50 51 52 53 54 55 56 57 58 59 60 61 62 63 64 65 66
          67 68 69 70 71 72 73 74 75 76 77 78 79 80 81 82 83 84 85 86 87
          88 89 90 91 92 93 94 95 96 97 98 99 100 101 102 103 104 105
          106 107 108 109 110 111 112 113 114 115 116 117 118 119 120
          121 122 123 124 125 126 127 128 129 130 131 132 133 134 135
          136 137 138 139 140 141 142 143 144 145 146 147 148 149 150
          151 152 153 154 155 156 157 158 159 160 161 162 163 164 165
          166 167 168 169 170 171 172 173 174 175 176 177 178 179 180
          181 182 183 184 185 186 187 188 189 190 191 192 193 194 195
          196 197 198 199 200 201 202 203 204 205 206 207 208 209 210
          211 212 213 214 215 216 217 218 219 220 221 222 223 224 225
          226 227 228 229 230 231 232 233 234 235 236 237 238 239 240
          241 242 243 244 245 246 247 248 249 250 251 252 253 254 255
          256 257 258 259 260 261 262 263 264 265 266 267 268 269 270
          271 272 273 274 275 276 277 278 279 280 281 282 283 284 285
          286 287 288 289 290 291 292 293 294 295 296 297 298 299 300
          301 302 303 304 305 306 307 308 309 310 311 312 313 314 315
          316 317 318 319 320 321 322 323 324 325 326 327 328 329 330
          331 332 333 334 335 336 337 338 339 340 341 342 343 344 345
          346 347 348 349 350 351 352 353 354 355 356 357 358 359 360
          361 362 363 364 365 366 367 368 369 370 371 372 373 374 375
          376 377 378 379 380 381 382 383 384 385 386 387 388 389 390
          391 392 393 394 395 396 397 398 399 400 401 402 403 404 405
          406 407 408 409 410 411 412 413 414 415 416 417 418 419 420
          421 422 423 424 425 426 427 428 429 430 431 432 433 434 435
          436 437 438 439 440 441 442 443 444 445 446 447 448 449 450
          451 452 453 454 455 456 457 458 459 460 461 462 463 464 465
          466 467 468 469 470 471 472 473 474 475 476 477 478 479 480
          481 482 483 484 485 486 487 488 489 490 491 492 493 494 495
          496 497 498 499 500 501 502 503 504 505 506 507 508 509 510
          511 512 513 514 515 516 517 518 519 520 521 522 523 524 525
          526 527 528 529 530 531 532 533 534 535 536 537 538 539 540
          541 542 543 544 545 546 547 548 549 550 551 552 553 554 555
          556 557 558 559 560 561 562 563 564 565 566 567 568 569 570
          571 572 573 574 575 576 577 578 579 580 581 582 583 584 585
          586 587 588 589 590 591 592 593 594 595 596 597 598 599 600
          601 602 603 604 605 606 607 608 609 610 611 612 613 614 615
          616 617 618 619 620 621 622 623 624 625 626 627 628 629 630
          631 632 633 634 635 636 637 638 639 640 641 642 643 644 645
          646 647 648 649 650 651 652 653 654 655 656 657 658 659 660
          661 662 663 664 665 666 667 668 669 670 671 672 673 674 675
          676 677 678 679 680 681 682 683 684 685 686 687 688 689 690
          691 692 693 694 695 696 697 698 699 700 701 702 703 704 705
          706 707 708 709 710 711 712 713 714 715 716 717 718 719 720
          721 722 723 724 725 726 727 728 729 730 731 732 733 734 735
          736 737 738 739 740 741 742 743 744 745 746 747 748 749 750
          751 752 753 754 755 756 757 758 759 760 761 762 763 764 765
          766 767 768 769 770 771 772 773 774 775 776 777 778 779 780
          781 782 783 784 785 786 787 788 789 790 791 792 793 794 795
          796 797 798 799 800 801 802 803 804 805 806 807 808 809 810
          811 812 813 814 815 816 817 818 819 820 821 822 823 824 825
          826 827 828 829 830 831 832 833 834 835 836 837 838 839 840
          841 842 843 844 845 846 847 848 849 850 851 852 853 854 855
          856 857 858 859 860 861 862 863 864 865 866 867 868 869 870
          871 872 873 874 875 876 877 878 879 880 881 882 883 884 885
          886 887 888 889 890 891 892 893 894 895 896 897 898 899 900
          901 902 903 904 905 906 907 908 909 910 911 912 913 914 915
          916 917 918 919 920 921 922 923 924 925 926 927 928 929 930
          931 932 933 934 935 936 937 938 939 940 941 942 943 944 945
          946 947 948 949 950 951 952 953 954 955 956 957 958 959 960
          961 962 963 964 965 966 967 968 969 970 971 972 973 974 975
          976 977 978 979 980 981 982 983 984 985 986 987 988 989 990
          991 992 993 994 995 996 997 998 999 1000 1001 1002 1003 1004
          1005 1006 1007 1008 1009 1010 1011 1012 1013 1014 1015 1016
          1017 1018 1019 1020 1021 1022 1023 1024 1025 1026 1027 1028
          1029 1030 1031 1032 1033 1034 1035 1036 1037 1038 1039 1040
          1041 1042 1043 1044 1045 1046 1047 1048 1049 1050 1051 1052
          1053 1054 1055 1056 1057 1058 1059 1060 1061 1062 1063 1064
          1065 1066 1067 1068 1069 1070 1071 1072 1073 1074 1075 1076
          1077 1078 1079 1080 1081 1082 1083 1084 1085 1086 1087 1088
          1089 1090 1091 1092 1093 1094 1095 1096 1097 1098 1099 1100
          1101 1102 1103 1104 1105 1106 1107 1108 1109 1110 1111 1112
          1113 1114 1115 1116 1117 1118 1119 1120 1121 1122 1123 1124
          1125 1126 1127 1128 1129 1130 1131 1132 1133 1134 1135 1136
          1137 1138 1139 1140 1141 1142 1143 1144 1145 1146 1147 1148
          1149 1150 1151 1152 1153 1154 1155 1156 1157 1158 1159 1160
          1161 1162 1163 1164 1165 1166 1167 1168 1169 1170 1171 1172
          1173 1174 1175 1176 1177 1178 1179 1180 1181 1182 1183 1184
          1185 1186 1187 1188 1189 1190 1191 1192 1193 1194 1195 1196
          1197 1198 1199 1200 1201 1202 1203 1204 1205 1206 1207 1208
          1209 1210 1211 1212 1213 1214 1215 1216 1217 1218 1219 1220
          1221 1222 1223 1224 1225 1226 1227 1228 1229 1230 1231 1232
          1233 1234 1235 1236 1237 1238 1239 1240 1241 1242 1243 1244
          1245 1246 1247 1248 1249 1250 1251 1252 1253 1254 1255 1256
          1257 1258 1259 1260 1261 1262 1263 1264 1265 1266 1267 1268
          1269 1270 1271 1272 1273 1274 1275 1276 1277 1278 1279 1280
          1281 1282 1283 1284 1285 1286 1287 1288 1289 1290 1291 1292
          1293 1294 1295 1296 1297 1298 1299 1300 1301 1302 1303 1304
          1305 1306 1307 1308 1309 1310 1311 1312 1313 1314 1315 1316
          1317 1318 1319 1320 1321 1322 1323 1324 1325 1326 1327 1328
          1329 1330 1331 1332 1333 1334 1335 1336 1337 1338 1339 1340
          1341 1342 1343 1344 1345 1346 1347 1348 1349 1350 1351 1352
          1353 1354 1355 1356 1357 1358 1359 1360 1361 1362 1363 1364
          1365 1366 1367 1368 1369 1370 1371 1372 1373 1374 1375 1376
          1377 1378 1379 1380 1381 1382 1383 1384 1385 1386 1387 1388
          1389 1390 1391 1392 1393 1394 1395 1396 1397 1398 1399 1400
          1401 1402 1403 1404 1405 1406 1407 1408 1409 1410 1411 1412
          1413 1414 1415 1416 1417 1418 1419 1420 1421 1422 1423 1424
          1425 1426 1427 1428 1429 1430 1431 1432 1433 1434 1435 1436
          1437 1438 1439 1440 1441 1442 1443 1444 1445 1446 1447 1448
          1449 1450 1451 1452 1453 1454 1455 1456 1457 1458 1459 1460
          1461 1462 1463 1464 1465 1466 1467 1468 1469 1470 1471 1472
          1473 1474 1475 1476 1477 1478 1479 1480 1481 1482 1483 1484
          1485 1486 1487 1488 1489 1490 1491 1492 1493 1494 1495 1496
          1497 1498 1499 1500 1501 1502 1503 1504 1505 1506 1507 1508
          1509 1510 1511 1512 1513 1514 1515 1516 1517 1518 1519 1520
          1521 1522 1523 1524 1525 1526 1527 1528 1529 1530 1531 1532
          1533 1534 1535 1536 1537 1538 1539 1540 1541 1542 1543 1544
          1545 1546 1547 1548 1549 1550 1551 1552 1553 1554 1555 1556
          1557 1558 1559 1560 1561 1562 1563 1564 1565 1566 1567 1568
          1569 1570 1571 1572 1573 1574 1575 1576 1577 1578 1579 1580
          1581 1582 1583 1584 1585 1586 1587 1588 1589 1590 1591 1592
          1593 1594 1595 1596 1597 1598 1599 1600 1601 1602 1603 1604
          1605 1606 1607 1608 1609 1610 1611 1612 1613 1614 1615 1616
          1617 1618 1619 1620 1621 1622 1623 1624 1625 1626 1627 1628
          1629 1630 1631 1632 1633 1634 1635 1636 1637 1638 1639 1640
          1641 1642 1643 1644 1645 1646 1647 1648 1649 1650 1651 1652
          1653 1654 1655 1656 1657 1658 1659 1660 1661 1662 1663 1664
          1665 1666 1667 1668 1669 1670 1671 1672 1673 1674 1675 1676
          1677 1678 1679 1680 1681 1682 1683 1684 1685 1686 1687 1688
          1689 1690 1691 1692 1693 1694 1695 1696 1697 1698 1699 1700
          1701 1702 1703 1704 1705 1706 1707 1708 1709 1710 1711 1712
          1713 1714 1715 1716 1717 1718 1719 1720 1721 1722 1723 1724
          1725 1726 1727 1728 1729 1730 1731 1732 1733 1734 1735 1736
          1737 1738 1739 1740 1741 1742 1743 1744 1745 1746 1747 1748
          1749 1750 1751 1752 1753 1754 1755 1756 1757 1758 1759 1760
          1761 1762 1763 1764 1765 1766 1767 1768 1769 1770 1771 1772
          1773 1774 1775 1776 1777 1778 1779 1780 1781 1782 1783 1784
          1785 1786 1787 1788 1789 1790 1791 1792 1793 1794 1795 1796
          1797 1798 1799 1800 1801 1802 1803 1804 1805 1806 1807 1808
          1809 1810 1811 1812 1813 1814 1815 1816 1817 1818 1819 1820
          1821 1822 1823 1824 1825 1826 1827 1828 1829 1830 1831 1832
          1833 1834 1835 1836 1837 1838 1839 1840 1841 1842 1843 1844
          1845 1846 1847 1848 1849 1850 1851 1852 1853 1854 1855 1856
          1857 1858 1859 1860 1861 1862 1863 1864 1865 1866 1867 1868
          1869 1870 1871 1872 1873 1874 1875 1876 1877 1878 1879 1880
          1881 1882 1883 1884 1885 1886 1887 1888 1889 1890 1891 1892
          1893 1894 1895 1896 1897 1898 1899 1900 1901 1902 1903 1904
          1905 1906 1907 1908 1909 1910 1911 1912 1913 1914 1915 1916
          1917 1918 1919 1920 1921 1922 1923 1924 1925 1926 1927 1928
          1929 1930 1931 1932 1933 1934 1935 1936 1937 1938 1939 1940
          1941 1942 1943 1944 1945 1946 1947 1948 1949 1950 1951 1952
          1953 1954 1955 1956 1957 1958 1959 1960 1961 1962 1963 1964
          1965 1966 1967 1968 1969 1970 1971 1972 1973 1974 1975 1976
          1977 1978 1979 1980 1981 1982 1983 1984 1985 1986 1987 1988
          1989 1990 1991 1992 1993 1994 1995 1996 1997 1998 1999 2000
          2001 2002 2003 2004 2005 2006 2007 2008 2009 2010 2011 2012
          2013 2014 2015 2016 2017 2018 2019 2020 2021 2022 2023 2024
          2025 2026 2027 2028 2029 2030 2031 2032 2033 2034 2035 2036
          2037 2038 2039 2040 2041 2042 2043 2044 2045 2046 2047 2048
          2049 2050 2051 2052 2053 2054 2055 2056 2057 2058 2059 2060
          2061 2062 2063 2064 2065 2066 2067 2068 2069 2070 2071 2072
          2073 2074 2075 2076 2077 2078 2079 2080 2081 2082 2083 2084
          2085 2086 2087 2088 2089 2090 2091 2092 2093 2094 2095 2096
          2097 2098 2099 2100 2101 2102 2103 2104 2105 2106 2107 2108
          2109 2110 2111 2112 2113 2114 2115 2116 2117 2118 2119 2120
          2121 2122 2123 2124 2125 2126 2127 2128 2129 2130 2131 2132
          2133 2134 2135 2136 2137 2138 2139 2140 2141 2142 2143 2144
          2145 2146 2147 2148 2149 2150 2151 2152 2153 2154 2155 2156
          2157 2158 2159 2160 2161 2162 2163 2164 2165 2166 2167 2168
          2169 2170 2171 2172 2173 2174 2175 2176 2177 2178 2179 2180
          2181 2182 2183 2184 2185 2186 2187

  element sets:
    Instance name: PART-1-1
      element set name: SET-1
        number of elements: 1280
        elements: 
          1 2 3 4 5 6 7 8 9 10 11 12 13 14 15 16 17 18 19 20 21 22 23 24
          25 26 27 28 29 30 31 32 33 34 35 36 37 38 39 40 41 42 43 44 45
          46 47 48 49 50 51 52 53 54 55 56 57 58 59 60 61 62 63 64 65 66
          67 68 69 70 71 72 73 74 75 76 77 78 79 80 81 82 83 84 85 86 87
          88 89 90 91 92 93 94 95 96 97 98 99 100 101 102 103 104 105
          106 107 108 109 110 111 112 113 114 115 116 117 118 119 120
          121 122 123 124 125 126 127 128 129 130 131 132 133 134 135
          136 137 138 139 140 141 142 143 144 145 146 147 148 149 150
          151 152 153 154 155 156 157 158 159 160 161 162 163 164 165
          166 167 168 169 170 171 172 173 174 175 176 177 178 179 180
          181 182 183 184 185 186 187 188 189 190 191 192 193 194 195
          196 197 198 199 200 201 202 203 204 205 206 207 208 209 210
          211 212 213 214 215 216 217 218 219 220 221 222 223 224 225
          226 227 228 229 230 231 232 233 234 235 236 237 238 239 240
          241 242 243 244 245 246 247 248 249 250 251 252 253 254 255
          256 257 258 259 260 261 262 263 264 265 266 267 268 269 270
          271 272 273 274 275 276 277 278 279 280 281 282 283 284 285
          286 287 288 289 290 291 292 293 294 295 296 297 298 299 300
          301 302 303 304 305 306 307 308 309 310 311 312 313 314 315
          316 317 318 319 320 321 322 323 324 325 326 327 328 329 330
          331 332 333 334 335 336 337 338 339 340 341 342 343 344 345
          346 347 348 349 350 351 352 353 354 355 356 357 358 359 360
          361 362 363 364 365 366 367 368 369 370 371 372 373 374 375
          376 377 378 379 380 381 382 383 384 385 386 387 388 389 390
          391 392 393 394 395 396 397 398 399 400 401 402 403 404 405
          406 407 408 409 410 411 412 413 414 415 416 417 418 419 420
          421 422 423 424 425 426 427 428 429 430 431 432 433 434 435
          436 437 438 439 440 441 442 443 444 445 446 447 448 449 450
          451 452 453 454 455 456 457 458 459 460 461 462 463 464 465
          466 467 468 469 470 471 472 473 474 475 476 477 478 479 480
          481 482 483 484 485 486 487 488 489 490 491 492 493 494 495
          496 497 498 499 500 501 502 503 504 505 506 507 508 509 510
          511 512 513 514 515 516 517 518 519 520 521 522 523 524 525
          526 527 528 529 530 531 532 533 534 535 536 537 538 539 540
          541 542 543 544 545 546 547 548 549 550 551 552 553 554 555
          556 557 558 559 560 561 562 563 564 565 566 567 568 569 570
          571 572 573 574 575 576 577 578 579 580 581 582 583 584 585
          586 587 588 589 590 591 592 593 594 595 596 597 598 599 600
          601 602 603 604 605 606 607 608 609 610 611 612 613 614 615
          616 617 618 619 620 621 622 623 624 625 626 627 628 629 630
          631 632 633 634 635 636 637 638 639 640 641 642 643 644 645
          646 647 648 649 650 651 652 653 654 655 656 657 658 659 660
          661 662 663 664 665 666 667 668 669 670 671 672 673 674 675
          676 677 678 679 680 681 682 683 684 685 686 687 688 689 690
          691 692 693 694 695 696 697 698 699 700 701 702 703 704 705
          706 707 708 709 710 711 712 713 714 715 716 717 718 719 720
          721 722 723 724 725 726 727 728 729 730 731 732 733 734 735
          736 737 738 739 740 741 742 743 744 745 746 747 748 749 750
          751 752 753 754 755 756 757 758 759 760 761 762 763 764 765
          766 767 768 769 770 771 772 773 774 775 776 777 778 779 780
          781 782 783 784 785 786 787 788 789 790 791 792 793 794 795
          796 797 798 799 800 801 802 803 804 805 806 807 808 809 810
          811 812 813 814 815 816 817 818 819 820 821 822 823 824 825
          826 827 828 829 830 831 832 833 834 835 836 837 838 839 840
          841 842 843 844 845 846 847 848 849 850 851 852 853 854 855
          856 857 858 859 860 861 862 863 864 865 866 867 868 869 870
          871 872 873 874 875 876 877 878 879 880 881 882 883 884 885
          886 887 888 889 890 891 892 893 894 895 896 897 898 899 900
          901 902 903 904 905 906 907 908 909 910 911 912 913 914 915
          916 917 918 919 920 921 922 923 924 925 926 927 928 929 930
          931 932 933 934 935 936 937 938 939 940 941 942 943 944 945
          946 947 948 949 950 951 952 953 954 955 956 957 958 959 960
          961 962 963 964 965 966 967 968 969 970 971 972 973 974 975
          976 977 978 979 980 981 982 983 984 985 986 987 988 989 990
          991 992 993 994 995 996 997 998 999 1000 1001 1002 1003 1004
          1005 1006 1007 1008 1009 1010 1011 1012 1013 1014 1015 1016
          1017 1018 1019 1020 1021 1022 1023 1024 1025 1026 1027 1028
          1029 1030 1031 1032 1033 1034 1035 1036 1037 1038 1039 1040
          1041 1042 1043 1044 1045 1046 1047 1048 1049 1050 1051 1052
          1053 1054 1055 1056 1057 1058 1059 1060 1061 1062 1063 1064
          1065 1066 1067 1068 1069 1070 1071 1072 1073 1074 1075 1076
          1077 1078 1079 1080 1081 1082 1083 1084 1085 1086 1087 1088
          1089 1090 1091 1092 1093 1094 1095 1096 1097 1098 1099 1100
          1101 1102 1103 1104 1105 1106 1107 1108 1109 1110 1111 1112
          1113 1114 1115 1116 1117 1118 1119 1120 1121 1122 1123 1124
          1125 1126 1127 1128 1129 1130 1131 1132 1133 1134 1135 1136
          1137 1138 1139 1140 1141 1142 1143 1144 1145 1146 1147 1148
          1149 1150 1151 1152 1153 1154 1155 1156 1157 1158 1159 1160
          1161 1162 1163 1164 1165 1166 1167 1168 1169 1170 1171 1172
          1173 1174 1175 1176 1177 1178 1179 1180 1181 1182 1183 1184
          1185 1186 1187 1188 1189 1190 1191 1192 1193 1194 1195 1196
          1197 1198 1199 1200 1201 1202 1203 1204 1205 1206 1207 1208
          1209 1210 1211 1212 1213 1214 1215 1216 1217 1218 1219 1220
          1221 1222 1223 1224 1225 1226 1227 1228 1229 1230 1231 1232
          1233 1234 1235 1236 1237 1238 1239 1240 1241 1242 1243 1244
          1245 1246 1247 1248 1249 1250 1251 1252 1253 1254 1255 1256
          1257 1258 1259 1260 1261 1262 1263 1264 1265 1266 1267 1268
          1269 1270 1271 1272 1273 1274 1275 1276 1277 1278 1279 1280

  Surfaces:

GLOBAL TO LOCAL NODE AND ELEMENT MAPS
  Global     Local      
  node       node       
  number     number     
                        Instance name                                   
   1          1         PART-1-1                                        
   2          2         PART-1-1                                        
   3          3         PART-1-1                                        
   4          4         PART-1-1                                        
   5          5         PART-1-1                                        
   6          6         PART-1-1                                        
   7          7         PART-1-1                                        
   8          8         PART-1-1                                        
   9          9         PART-1-1                                        
   10         10        PART-1-1                                        
   11         11        PART-1-1                                        
   12         12        PART-1-1                                        
   13         13        PART-1-1                                        
   14         14        PART-1-1                                        
   15         15        PART-1-1                                        
   16         16        PART-1-1                                        
   17         17        PART-1-1                                        
   18         18        PART-1-1                                        
   19         19        PART-1-1                                        
   20         20        PART-1-1                                        
   21         21        PART-1-1                                        
   22         22        PART-1-1                                        
   23         23        PART-1-1                                        
   24         24        PART-1-1                                        
   25         25        PART-1-1                                        
   26         26        PART-1-1                                        
   27         27        PART-1-1                                        
   28         28        PART-1-1                                        
   29         29        PART-1-1                                        
   30         30        PART-1-1                                        
   31         31        PART-1-1                                        
   32         32        PART-1-1                                        
   33         33        PART-1-1                                        
   34         34        PART-1-1                                        
   35         35        PART-1-1                                        
   36         36        PART-1-1                                        
   37         37        PART-1-1                                        
   38         38        PART-1-1                                        
   39         39        PART-1-1                                        
   40         40        PART-1-1                                        
   41         41        PART-1-1                                        
   42         42        PART-1-1                                        
   43         43        PART-1-1                                        
   44         44        PART-1-1                                        
   45         45        PART-1-1                                        
   46         46        PART-1-1                                        
   47         47        PART-1-1                                        
   48         48        PART-1-1                                        
   49         49        PART-1-1                                        
   50         50        PART-1-1                                        
   51         51        PART-1-1                                        
   52         52        PART-1-1                                        
   53         53        PART-1-1                                        
   54         54        PART-1-1                                        
   55         55        PART-1-1                                        
   56         56        PART-1-1                                        
   57         57        PART-1-1                                        
   58         58        PART-1-1                                        
   59         59        PART-1-1                                        
   60         60        PART-1-1                                        
   61         61        PART-1-1                                        
   62         62        PART-1-1                                        
   63         63        PART-1-1                                        
   64         64        PART-1-1                                        
   65         65        PART-1-1                                        
   66         66        PART-1-1                                        
   67         67        PART-1-1                                        
   68         68        PART-1-1                                        
   69         69        PART-1-1                                        
   70         70        PART-1-1                                        
   71         71        PART-1-1                                        
   72         72        PART-1-1                                        
   73         73        PART-1-1                                        
   74         74        PART-1-1                                        
   75         75        PART-1-1                                        
   76         76        PART-1-1                                        
   77         77        PART-1-1                                        
   78         78        PART-1-1                                        
   79         79        PART-1-1                                        
   80         80        PART-1-1                                        
   81         81        PART-1-1                                        
   82         82        PART-1-1                                        
   83         83        PART-1-1                                        
   84         84        PART-1-1                                        
   85         85        PART-1-1                                        
   86         86        PART-1-1                                        
   87         87        PART-1-1                                        
   88         88        PART-1-1                                        
   89         89        PART-1-1                                        
   90         90        PART-1-1                                        
   91         91        PART-1-1                                        
   92         92        PART-1-1                                        
   93         93        PART-1-1                                        
   94         94        PART-1-1                                        
   95         95        PART-1-1                                        
   96         96        PART-1-1                                        
   97         97        PART-1-1                                        
   98         98        PART-1-1                                        
   99         99        PART-1-1                                        
   100        100       PART-1-1                                        
   101        101       PART-1-1                                        
   102        102       PART-1-1                                        
   103        103       PART-1-1                                        
   104        104       PART-1-1                                        
   105        105       PART-1-1                                        
   106        106       PART-1-1                                        
   107        107       PART-1-1                                        
   108        108       PART-1-1                                        
   109        109       PART-1-1                                        
   110        110       PART-1-1                                        
   111        111       PART-1-1                                        
   112        112       PART-1-1                                        
   113        113       PART-1-1                                        
   114        114       PART-1-1                                        
   115        115       PART-1-1                                        
   116        116       PART-1-1                                        
   117        117       PART-1-1                                        
   118        118       PART-1-1                                        
   119        119       PART-1-1                                        
   120        120       PART-1-1                                        
   121        121       PART-1-1                                        
   122        122       PART-1-1                                        
   123        123       PART-1-1                                        
   124        124       PART-1-1                                        
   125        125       PART-1-1                                        
   126        126       PART-1-1                                        
   127        127       PART-1-1                                        
   128        128       PART-1-1                                        
   129        129       PART-1-1                                        
   130        130       PART-1-1                                        
   131        131       PART-1-1                                        
   132        132       PART-1-1                                        
   133        133       PART-1-1                                        
   134        134       PART-1-1                                        
   135        135       PART-1-1                                        
   136        136       PART-1-1                                        
   137        137       PART-1-1                                        
   138        138       PART-1-1                                        
   139        139       PART-1-1                                        
   140        140       PART-1-1                                        
   141        141       PART-1-1                                        
   142        142       PART-1-1                                        
   143        143       PART-1-1                                        
   144        144       PART-1-1                                        
   145        145       PART-1-1                                        
   146        146       PART-1-1                                        
   147        147       PART-1-1                                        
   148        148       PART-1-1                                        
   149        149       PART-1-1                                        
   150        150       PART-1-1                                        
   151        151       PART-1-1                                        
   152        152       PART-1-1                                        
   153        153       PART-1-1                                        
   154        154       PART-1-1                                        
   155        155       PART-1-1                                        
   156        156       PART-1-1                                        
   157        157       PART-1-1                                        
   158        158       PART-1-1                                        
   159        159       PART-1-1                                        
   160        160       PART-1-1                                        
   161        161       PART-1-1                                        
   162        162       PART-1-1                                        
   163        163       PART-1-1                                        
   164        164       PART-1-1                                        
   165        165       PART-1-1                                        
   166        166       PART-1-1                                        
   167        167       PART-1-1                                        
   168        168       PART-1-1                                        
   169        169       PART-1-1                                        
   170        170       PART-1-1                                        
   171        171       PART-1-1                                        
   172        172       PART-1-1                                        
   173        173       PART-1-1                                        
   174        174       PART-1-1                                        
   175        175       PART-1-1                                        
   176        176       PART-1-1                                        
   177        177       PART-1-1                                        
   178        178       PART-1-1                                        
   179        179       PART-1-1                                        
   180        180       PART-1-1                                        
   181        181       PART-1-1                                        
   182        182       PART-1-1                                        
   183        183       PART-1-1                                        
   184        184       PART-1-1                                        
   185        185       PART-1-1                                        
   186        186       PART-1-1                                        
   187        187       PART-1-1                                        
   188        188       PART-1-1                                        
   189        189       PART-1-1                                        
   190        190       PART-1-1                                        
   191        191       PART-1-1                                        
   192        192       PART-1-1                                        
   193        193       PART-1-1                                        
   194        194       PART-1-1                                        
   195        195       PART-1-1                                        
   196        196       PART-1-1                                        
   197        197       PART-1-1                                        
   198        198       PART-1-1                                        
   199        199       PART-1-1                                        
   200        200       PART-1-1                                        
   201        201       PART-1-1                                        
   202        202       PART-1-1                                        
   203        203       PART-1-1                                        
   204        204       PART-1-1                                        
   205        205       PART-1-1                                        
   206        206       PART-1-1                                        
   207        207       PART-1-1                                        
   208        208       PART-1-1                                        
   209        209       PART-1-1                                        
   210        210       PART-1-1                                        
   211        211       PART-1-1                                        
   212        212       PART-1-1                                        
   213        213       PART-1-1                                        
   214        214       PART-1-1                                        
   215        215       PART-1-1                                        
   216        216       PART-1-1                                        
   217        217       PART-1-1                                        
   218        218       PART-1-1                                        
   219        219       PART-1-1                                        
   220        220       PART-1-1                                        
   221        221       PART-1-1                                        
   222        222       PART-1-1                                        
   223        223       PART-1-1                                        
   224        224       PART-1-1                                        
   225        225       PART-1-1                                        
   226        226       PART-1-1                                        
   227        227       PART-1-1                                        
   228        228       PART-1-1                                        
   229        229       PART-1-1                                        
   230        230       PART-1-1                                        
   231        231       PART-1-1                                        
   232        232       PART-1-1                                        
   233        233       PART-1-1                                        
   234        234       PART-1-1                                        
   235        235       PART-1-1                                        
   236        236       PART-1-1                                        
   237        237       PART-1-1                                        
   238        238       PART-1-1                                        
   239        239       PART-1-1                                        
   240        240       PART-1-1                                        
   241        241       PART-1-1                                        
   242        242       PART-1-1                                        
   243        243       PART-1-1                                        
   244        244       PART-1-1                                        
   245        245       PART-1-1                                        
   246        246       PART-1-1                                        
   247        247       PART-1-1                                        
   248        248       PART-1-1                                        
   249        249       PART-1-1                                        
   250        250       PART-1-1                                        
   251        251       PART-1-1                                        
   252        252       PART-1-1                                        
   253        253       PART-1-1                                        
   254        254       PART-1-1                                        
   255        255       PART-1-1                                        
   256        256       PART-1-1                                        
   257        257       PART-1-1                                        
   258        258       PART-1-1                                        
   259        259       PART-1-1                                        
   260        260       PART-1-1                                        
   261        261       PART-1-1                                        
   262        262       PART-1-1                                        
   263        263       PART-1-1                                        
   264        264       PART-1-1                                        
   265        265       PART-1-1                                        
   266        266       PART-1-1                                        
   267        267       PART-1-1                                        
   268        268       PART-1-1                                        
   269        269       PART-1-1                                        
   270        270       PART-1-1                                        
   271        271       PART-1-1                                        
   272        272       PART-1-1                                        
   273        273       PART-1-1                                        
   274        274       PART-1-1                                        
   275        275       PART-1-1                                        
   276        276       PART-1-1                                        
   277        277       PART-1-1                                        
   278        278       PART-1-1                                        
   279        279       PART-1-1                                        
   280        280       PART-1-1                                        
   281        281       PART-1-1                                        
   282        282       PART-1-1                                        
   283        283       PART-1-1                                        
   284        284       PART-1-1                                        
   285        285       PART-1-1                                        
   286        286       PART-1-1                                        
   287        287       PART-1-1                                        
   288        288       PART-1-1                                        
   289        289       PART-1-1                                        
   290        290       PART-1-1                                        
   291        291       PART-1-1                                        
   292        292       PART-1-1                                        
   293        293       PART-1-1                                        
   294        294       PART-1-1                                        
   295        295       PART-1-1                                        
   296        296       PART-1-1                                        
   297        297       PART-1-1                                        
   298        298       PART-1-1                                        
   299        299       PART-1-1                                        
   300        300       PART-1-1                                        
   301        301       PART-1-1                                        
   302        302       PART-1-1                                        
   303        303       PART-1-1                                        
   304        304       PART-1-1                                        
   305        305       PART-1-1                                        
   306        306       PART-1-1                                        
   307        307       PART-1-1                                        
   308        308       PART-1-1                                        
   309        309       PART-1-1                                        
   310        310       PART-1-1                                        
   311        311       PART-1-1                                        
   312        312       PART-1-1                                        
   313        313       PART-1-1                                        
   314        314       PART-1-1                                        
   315        315       PART-1-1                                        
   316        316       PART-1-1                                        
   317        317       PART-1-1                                        
   318        318       PART-1-1                                        
   319        319       PART-1-1                                        
   320        320       PART-1-1                                        
   321        321       PART-1-1                                        
   322        322       PART-1-1                                        
   323        323       PART-1-1                                        
   324        324       PART-1-1                                        
   325        325       PART-1-1                                        
   326        326       PART-1-1                                        
   327        327       PART-1-1                                        
   328        328       PART-1-1                                        
   329        329       PART-1-1                                        
   330        330       PART-1-1                                        
   331        331       PART-1-1                                        
   332        332       PART-1-1                                        
   333        333       PART-1-1                                        
   334        334       PART-1-1                                        
   335        335       PART-1-1                                        
   336        336       PART-1-1                                        
   337        337       PART-1-1                                        
   338        338       PART-1-1                                        
   339        339       PART-1-1                                        
   340        340       PART-1-1                                        
   341        341       PART-1-1                                        
   342        342       PART-1-1                                        
   343        343       PART-1-1                                        
   344        344       PART-1-1                                        
   345        345       PART-1-1                                        
   346        346       PART-1-1                                        
   347        347       PART-1-1                                        
   348        348       PART-1-1                                        
   349        349       PART-1-1                                        
   350        350       PART-1-1                                        
   351        351       PART-1-1                                        
   352        352       PART-1-1                                        
   353        353       PART-1-1                                        
   354        354       PART-1-1                                        
   355        355       PART-1-1                                        
   356        356       PART-1-1                                        
   357        357       PART-1-1                                        
   358        358       PART-1-1                                        
   359        359       PART-1-1                                        
   360        360       PART-1-1                                        
   361        361       PART-1-1                                        
   362        362       PART-1-1                                        
   363        363       PART-1-1                                        
   364        364       PART-1-1                                        
   365        365       PART-1-1                                        
   366        366       PART-1-1                                        
   367        367       PART-1-1                                        
   368        368       PART-1-1                                        
   369        369       PART-1-1                                        
   370        370       PART-1-1                                        
   371        371       PART-1-1                                        
   372        372       PART-1-1                                        
   373        373       PART-1-1                                        
   374        374       PART-1-1                                        
   375        375       PART-1-1                                        
   376        376       PART-1-1                                        
   377        377       PART-1-1                                        
   378        378       PART-1-1                                        
   379        379       PART-1-1                                        
   380        380       PART-1-1                                        
   381        381       PART-1-1                                        
   382        382       PART-1-1                                        
   383        383       PART-1-1                                        
   384        384       PART-1-1                                        
   385        385       PART-1-1                                        
   386        386       PART-1-1                                        
   387        387       PART-1-1                                        
   388        388       PART-1-1                                        
   389        389       PART-1-1                                        
   390        390       PART-1-1                                        
   391        391       PART-1-1                                        
   392        392       PART-1-1                                        
   393        393       PART-1-1                                        
   394        394       PART-1-1                                        
   395        395       PART-1-1                                        
   396        396       PART-1-1                                        
   397        397       PART-1-1                                        
   398        398       PART-1-1                                        
   399        399       PART-1-1                                        
   400        400       PART-1-1                                        
   401        401       PART-1-1                                        
   402        402       PART-1-1                                        
   403        403       PART-1-1                                        
   404        404       PART-1-1                                        
   405        405       PART-1-1                                        
   406        406       PART-1-1                                        
   407        407       PART-1-1                                        
   408        408       PART-1-1                                        
   409        409       PART-1-1                                        
   410        410       PART-1-1                                        
   411        411       PART-1-1                                        
   412        412       PART-1-1                                        
   413        413       PART-1-1                                        
   414        414       PART-1-1                                        
   415        415       PART-1-1                                        
   416        416       PART-1-1                                        
   417        417       PART-1-1                                        
   418        418       PART-1-1                                        
   419        419       PART-1-1                                        
   420        420       PART-1-1                                        
   421        421       PART-1-1                                        
   422        422       PART-1-1                                        
   423        423       PART-1-1                                        
   424        424       PART-1-1                                        
   425        425       PART-1-1                                        
   426        426       PART-1-1                                        
   427        427       PART-1-1                                        
   428        428       PART-1-1                                        
   429        429       PART-1-1                                        
   430        430       PART-1-1                                        
   431        431       PART-1-1                                        
   432        432       PART-1-1                                        
   433        433       PART-1-1                                        
   434        434       PART-1-1                                        
   435        435       PART-1-1                                        
   436        436       PART-1-1                                        
   437        437       PART-1-1                                        
   438        438       PART-1-1                                        
   439        439       PART-1-1                                        
   440        440       PART-1-1                                        
   441        441       PART-1-1                                        
   442        442       PART-1-1                                        
   443        443       PART-1-1                                        
   444        444       PART-1-1                                        
   445        445       PART-1-1                                        
   446        446       PART-1-1                                        
   447        447       PART-1-1                                        
   448        448       PART-1-1                                        
   449        449       PART-1-1                                        
   450        450       PART-1-1                                        
   451        451       PART-1-1                                        
   452        452       PART-1-1                                        
   453        453       PART-1-1                                        
   454        454       PART-1-1                                        
   455        455       PART-1-1                                        
   456        456       PART-1-1                                        
   457        457       PART-1-1                                        
   458        458       PART-1-1                                        
   459        459       PART-1-1                                        
   460        460       PART-1-1                                        
   461        461       PART-1-1                                        
   462        462       PART-1-1                                        
   463        463       PART-1-1                                        
   464        464       PART-1-1                                        
   465        465       PART-1-1                                        
   466        466       PART-1-1                                        
   467        467       PART-1-1                                        
   468        468       PART-1-1                                        
   469        469       PART-1-1                                        
   470        470       PART-1-1                                        
   471        471       PART-1-1                                        
   472        472       PART-1-1                                        
   473        473       PART-1-1                                        
   474        474       PART-1-1                                        
   475        475       PART-1-1                                        
   476        476       PART-1-1                                        
   477        477       PART-1-1                                        
   478        478       PART-1-1                                        
   479        479       PART-1-1                                        
   480        480       PART-1-1                                        
   481        481       PART-1-1                                        
   482        482       PART-1-1                                        
   483        483       PART-1-1                                        
   484        484       PART-1-1                                        
   485        485       PART-1-1                                        
   486        486       PART-1-1                                        
   487        487       PART-1-1                                        
   488        488       PART-1-1                                        
   489        489       PART-1-1                                        
   490        490       PART-1-1                                        
   491        491       PART-1-1                                        
   492        492       PART-1-1                                        
   493        493       PART-1-1                                        
   494        494       PART-1-1                                        
   495        495       PART-1-1                                        
   496        496       PART-1-1                                        
   497        497       PART-1-1                                        
   498        498       PART-1-1                                        
   499        499       PART-1-1                                        
   500        500       PART-1-1                                        
   501        501       PART-1-1                                        
   502        502       PART-1-1                                        
   503        503       PART-1-1                                        
   504        504       PART-1-1                                        
   505        505       PART-1-1                                        
   506        506       PART-1-1                                        
   507        507       PART-1-1                                        
   508        508       PART-1-1                                        
   509        509       PART-1-1                                        
   510        510       PART-1-1                                        
   511        511       PART-1-1                                        
   512        512       PART-1-1                                        
   513        513       PART-1-1                                        
   514        514       PART-1-1                                        
   515        515       PART-1-1                                        
   516        516       PART-1-1                                        
   517        517       PART-1-1                                        
   518        518       PART-1-1                                        
   519        519       PART-1-1                                        
   520        520       PART-1-1                                        
   521        521       PART-1-1                                        
   522        522       PART-1-1                                        
   523        523       PART-1-1                                        
   524        524       PART-1-1                                        
   525        525       PART-1-1                                        
   526        526       PART-1-1                                        
   527        527       PART-1-1                                        
   528        528       PART-1-1                                        
   529        529       PART-1-1                                        
   530        530       PART-1-1                                        
   531        531       PART-1-1                                        
   532        532       PART-1-1                                        
   533        533       PART-1-1                                        
   534        534       PART-1-1                                        
   535        535       PART-1-1                                        
   536        536       PART-1-1                                        
   537        537       PART-1-1                                        
   538        538       PART-1-1                                        
   539        539       PART-1-1                                        
   540        540       PART-1-1                                        
   541        541       PART-1-1                                        
   542        542       PART-1-1                                        
   543        543       PART-1-1                                        
   544        544       PART-1-1                                        
   545        545       PART-1-1                                        
   546        546       PART-1-1                                        
   547        547       PART-1-1                                        
   548        548       PART-1-1                                        
   549        549       PART-1-1                                        
   550        550       PART-1-1                                        
   551        551       PART-1-1                                        
   552        552       PART-1-1                                        
   553        553       PART-1-1                                        
   554        554       PART-1-1                                        
   555        555       PART-1-1                                        
   556        556       PART-1-1                                        
   557        557       PART-1-1                                        
   558        558       PART-1-1                                        
   559        559       PART-1-1                                        
   560        560       PART-1-1                                        
   561        561       PART-1-1                                        
   562        562       PART-1-1                                        
   563        563       PART-1-1                                        
   564        564       PART-1-1                                        
   565        565       PART-1-1                                        
   566        566       PART-1-1                                        
   567        567       PART-1-1                                        
   568        568       PART-1-1                                        
   569        569       PART-1-1                                        
   570        570       PART-1-1                                        
   571        571       PART-1-1                                        
   572        572       PART-1-1                                        
   573        573       PART-1-1                                        
   574        574       PART-1-1                                        
   575        575       PART-1-1                                        
   576        576       PART-1-1                                        
   577        577       PART-1-1                                        
   578        578       PART-1-1                                        
   579        579       PART-1-1                                        
   580        580       PART-1-1                                        
   581        581       PART-1-1                                        
   582        582       PART-1-1                                        
   583        583       PART-1-1                                        
   584        584       PART-1-1                                        
   585        585       PART-1-1                                        
   586        586       PART-1-1                                        
   587        587       PART-1-1                                        
   588        588       PART-1-1                                        
   589        589       PART-1-1                                        
   590        590       PART-1-1                                        
   591        591       PART-1-1                                        
   592        592       PART-1-1                                        
   593        593       PART-1-1                                        
   594        594       PART-1-1                                        
   595        595       PART-1-1                                        
   596        596       PART-1-1                                        
   597        597       PART-1-1                                        
   598        598       PART-1-1                                        
   599        599       PART-1-1                                        
   600        600       PART-1-1                                        
   601        601       PART-1-1                                        
   602        602       PART-1-1                                        
   603        603       PART-1-1                                        
   604        604       PART-1-1                                        
   605        605       PART-1-1                                        
   606        606       PART-1-1                                        
   607        607       PART-1-1                                        
   608        608       PART-1-1                                        
   609        609       PART-1-1                                        
   610        610       PART-1-1                                        
   611        611       PART-1-1                                        
   612        612       PART-1-1                                        
   613        613       PART-1-1                                        
   614        614       PART-1-1                                        
   615        615       PART-1-1                                        
   616        616       PART-1-1                                        
   617        617       PART-1-1                                        
   618        618       PART-1-1                                        
   619        619       PART-1-1                                        
   620        620       PART-1-1                                        
   621        621       PART-1-1                                        
   622        622       PART-1-1                                        
   623        623       PART-1-1                                        
   624        624       PART-1-1                                        
   625        625       PART-1-1                                        
   626        626       PART-1-1                                        
   627        627       PART-1-1                                        
   628        628       PART-1-1                                        
   629        629       PART-1-1                                        
   630        630       PART-1-1                                        
   631        631       PART-1-1                                        
   632        632       PART-1-1                                        
   633        633       PART-1-1                                        
   634        634       PART-1-1                                        
   635        635       PART-1-1                                        
   636        636       PART-1-1                                        
   637        637       PART-1-1                                        
   638        638       PART-1-1                                        
   639        639       PART-1-1                                        
   640        640       PART-1-1                                        
   641        641       PART-1-1                                        
   642        642       PART-1-1                                        
   643        643       PART-1-1                                        
   644        644       PART-1-1                                        
   645        645       PART-1-1                                        
   646        646       PART-1-1                                        
   647        647       PART-1-1                                        
   648        648       PART-1-1                                        
   649        649       PART-1-1                                        
   650        650       PART-1-1                                        
   651        651       PART-1-1                                        
   652        652       PART-1-1                                        
   653        653       PART-1-1                                        
   654        654       PART-1-1                                        
   655        655       PART-1-1                                        
   656        656       PART-1-1                                        
   657        657       PART-1-1                                        
   658        658       PART-1-1                                        
   659        659       PART-1-1                                        
   660        660       PART-1-1                                        
   661        661       PART-1-1                                        
   662        662       PART-1-1                                        
   663        663       PART-1-1                                        
   664        664       PART-1-1                                        
   665        665       PART-1-1                                        
   666        666       PART-1-1                                        
   667        667       PART-1-1                                        
   668        668       PART-1-1                                        
   669        669       PART-1-1                                        
   670        670       PART-1-1                                        
   671        671       PART-1-1                                        
   672        672       PART-1-1                                        
   673        673       PART-1-1                                        
   674        674       PART-1-1                                        
   675        675       PART-1-1                                        
   676        676       PART-1-1                                        
   677        677       PART-1-1                                        
   678        678       PART-1-1                                        
   679        679       PART-1-1                                        
   680        680       PART-1-1                                        
   681        681       PART-1-1                                        
   682        682       PART-1-1                                        
   683        683       PART-1-1                                        
   684        684       PART-1-1                                        
   685        685       PART-1-1                                        
   686        686       PART-1-1                                        
   687        687       PART-1-1                                        
   688        688       PART-1-1                                        
   689        689       PART-1-1                                        
   690        690       PART-1-1                                        
   691        691       PART-1-1                                        
   692        692       PART-1-1                                        
   693        693       PART-1-1                                        
   694        694       PART-1-1                                        
   695        695       PART-1-1                                        
   696        696       PART-1-1                                        
   697        697       PART-1-1                                        
   698        698       PART-1-1                                        
   699        699       PART-1-1                                        
   700        700       PART-1-1                                        
   701        701       PART-1-1                                        
   702        702       PART-1-1                                        
   703        703       PART-1-1                                        
   704        704       PART-1-1                                        
   705        705       PART-1-1                                        
   706        706       PART-1-1                                        
   707        707       PART-1-1                                        
   708        708       PART-1-1                                        
   709        709       PART-1-1                                        
   710        710       PART-1-1                                        
   711        711       PART-1-1                                        
   712        712       PART-1-1                                        
   713        713       PART-1-1                                        
   714        714       PART-1-1                                        
   715        715       PART-1-1                                        
   716        716       PART-1-1                                        
   717        717       PART-1-1                                        
   718        718       PART-1-1                                        
   719        719       PART-1-1                                        
   720        720       PART-1-1                                        
   721        721       PART-1-1                                        
   722        722       PART-1-1                                        
   723        723       PART-1-1                                        
   724        724       PART-1-1                                        
   725        725       PART-1-1                                        
   726        726       PART-1-1                                        
   727        727       PART-1-1                                        
   728        728       PART-1-1                                        
   729        729       PART-1-1                                        
   730        730       PART-1-1                                        
   731        731       PART-1-1                                        
   732        732       PART-1-1                                        
   733        733       PART-1-1                                        
   734        734       PART-1-1                                        
   735        735       PART-1-1                                        
   736        736       PART-1-1                                        
   737        737       PART-1-1                                        
   738        738       PART-1-1                                        
   739        739       PART-1-1                                        
   740        740       PART-1-1                                        
   741        741       PART-1-1                                        
   742        742       PART-1-1                                        
   743        743       PART-1-1                                        
   744        744       PART-1-1                                        
   745        745       PART-1-1                                        
   746        746       PART-1-1                                        
   747        747       PART-1-1                                        
   748        748       PART-1-1                                        
   749        749       PART-1-1                                        
   750        750       PART-1-1                                        
   751        751       PART-1-1                                        
   752        752       PART-1-1                                        
   753        753       PART-1-1                                        
   754        754       PART-1-1                                        
   755        755       PART-1-1                                        
   756        756       PART-1-1                                        
   757        757       PART-1-1                                        
   758        758       PART-1-1                                        
   759        759       PART-1-1                                        
   760        760       PART-1-1                                        
   761        761       PART-1-1                                        
   762        762       PART-1-1                                        
   763        763       PART-1-1                                        
   764        764       PART-1-1                                        
   765        765       PART-1-1                                        
   766        766       PART-1-1                                        
   767        767       PART-1-1                                        
   768        768       PART-1-1                                        
   769        769       PART-1-1                                        
   770        770       PART-1-1                                        
   771        771       PART-1-1                                        
   772        772       PART-1-1                                        
   773        773       PART-1-1                                        
   774        774       PART-1-1                                        
   775        775       PART-1-1                                        
   776        776       PART-1-1                                        
   777        777       PART-1-1                                        
   778        778       PART-1-1                                        
   779        779       PART-1-1                                        
[...]
      1873     -1.3178306E-02  1.0609523E-02  1.0348247E-01 
      1874     -1.3625839E-02  8.5261899E-03  1.0317682E-01 
      1875     -1.4073373E-02  6.4428566E-03  1.0287116E-01 
      1876     -1.4053083E-02  1.0915180E-02  1.1042692E-01 
      1877     -1.4500616E-02  8.8318464E-03  1.1012126E-01 
      1878     -1.4948149E-02  6.7485130E-03  1.0981560E-01 
      1879     -1.4927859E-02  1.1220836E-02  1.1737136E-01 
      1880     -1.5375393E-02  9.1375029E-03  1.1706570E-01 
      1881     -1.5822926E-02  7.0541695E-03  1.1676005E-01 
      1882     -1.5802636E-02  1.1526493E-02  1.2431581E-01 
      1883     -1.6250169E-02  9.4431594E-03  1.2401015E-01 
      1884     -1.6697702E-02  7.3598260E-03  1.2370449E-01 
      1885     -1.6677413E-02  1.1832149E-02  1.3126025E-01 
      1886     -1.7124946E-02  9.7488158E-03  1.3095459E-01 
      1887     -1.7572479E-02  7.6654825E-03  1.3064894E-01 
      1888     -1.7552189E-02  1.2137806E-02  1.3820469E-01 
      1889     -1.7999722E-02  1.0054472E-02  1.3789904E-01 
      1890     -1.8447256E-02  7.9711390E-03  1.3759338E-01 
      1891     -1.8426966E-02  1.2443462E-02  1.4514914E-01 
      1892     -1.8874499E-02  1.0360129E-02  1.4484348E-01 
      1893     -1.9322032E-02  8.2767955E-03  1.4453783E-01 
      1894     -1.9301742E-02  1.2749119E-02  1.5209358E-01 
      1895     -1.9749276E-02  1.0665785E-02  1.5178793E-01 
      1896     -2.0196809E-02  8.5824520E-03  1.5148227E-01 
      1897     -2.0176519E-02  1.3054775E-02  1.5903803E-01 
      1898     -2.0624052E-02  1.0971442E-02  1.5873237E-01 
      1899     -2.1071585E-02  8.8881085E-03  1.5842671E-01 
      1900     -2.1051296E-02  1.3360432E-02  1.6598247E-01 
      1901     -2.1498829E-02  1.1277098E-02  1.6567682E-01 
      1902     -2.1946362E-02  9.1937650E-03  1.6537116E-01 
      1903     -2.1926072E-02  1.3666088E-02  1.7292692E-01 
      1904     -2.2373605E-02  1.1582755E-02  1.7262126E-01 
      1905     -2.2821139E-02  9.4994214E-03  1.7231560E-01 
      1906     -2.2800849E-02  1.3971745E-02  1.7987136E-01 
      1907     -2.3248382E-02  1.1888411E-02  1.7956570E-01 
      1908     -2.3695915E-02  9.8050779E-03  1.7926005E-01 
      1909     -2.3675625E-02  1.4277401E-02  1.8681581E-01 
      1910     -2.4123159E-02  1.2194068E-02  1.8651015E-01 
      1911     -2.4570692E-02  1.0110734E-02  1.8620449E-01 
      1912     -2.4550402E-02  1.4583058E-02  1.9376025E-01 
      1913     -2.4997935E-02  1.2499724E-02  1.9345459E-01 
      1914     -2.5445468E-02  1.0416391E-02  1.9314894E-01 
      1915     -2.5425179E-02  1.4888714E-02  2.0070469E-01 
      1916     -2.5872712E-02  1.2805381E-02  2.0039904E-01 
      1917     -2.6320245E-02  1.0722047E-02  2.0009338E-01 
      1918     -2.6299955E-02  1.5194371E-02  2.0764914E-01 
      1919     -2.6747488E-02  1.3111037E-02  2.0734348E-01 
      1920     -2.7195022E-02  1.1027704E-02  2.0703783E-01 
      1921     -2.7174732E-02  1.5500027E-02  2.1459358E-01 
      1922     -2.7622265E-02  1.3416694E-02  2.1428793E-01 
      1923     -2.8069798E-02  1.1333360E-02  2.1398227E-01 
      1924     -2.8049508E-02  1.5805684E-02  2.2153803E-01 
      1925     -2.8497042E-02  1.3722350E-02  2.2123237E-01 
      1926     -2.8944575E-02  1.1639017E-02  2.2092671E-01 
      1927     -2.8924285E-02  1.6111340E-02  2.2848247E-01 
      1928     -2.9371818E-02  1.4028007E-02  2.2817682E-01 
      1929     -2.9819351E-02  1.1944673E-02  2.2787116E-01 
      1930     -2.9799062E-02  1.6416997E-02  2.3542692E-01 
      1931     -3.0246595E-02  1.4333663E-02  2.3512126E-01 
      1932     -3.0694128E-02  1.2250330E-02  2.3481560E-01 
      1933     -3.0673838E-02  1.6722653E-02  2.4237136E-01 
      1934     -3.1121371E-02  1.4639320E-02  2.4206570E-01 
      1935     -3.1568905E-02  1.2555986E-02  2.4176005E-01 
      1936     -3.1548615E-02  1.7028309E-02  2.4931581E-01 
      1937     -3.1996148E-02  1.4944976E-02  2.4901015E-01 
      1938     -3.2443681E-02  1.2861643E-02  2.4870449E-01 
      1939     -3.2423391E-02  1.7333966E-02  2.5626025E-01 
      1940     -3.2870925E-02  1.5250633E-02  2.5595459E-01 
      1941     -3.3318458E-02  1.3167299E-02  2.5564894E-01 
      1942     -3.3298168E-02  1.7639622E-02  2.6320469E-01 
      1943     -3.3745701E-02  1.5556289E-02  2.6289904E-01 
      1944     -3.4193234E-02  1.3472956E-02  2.6259338E-01 
      1945      3.4600627E-02 -6.3653634E-03 -2.9147608E-01 
      1946      3.4153094E-02 -8.4486967E-03 -2.9178174E-01 
      1947      3.3705561E-02 -1.0532030E-02 -2.9208740E-01 
      1948      3.3725850E-02 -6.0597069E-03 -2.8453164E-01 
      1949      3.3278317E-02 -8.1430402E-03 -2.8483730E-01 
      1950      3.2830784E-02 -1.0226374E-02 -2.8514295E-01 
      1951      3.2851074E-02 -5.7540504E-03 -2.7758720E-01 
      1952      3.2403541E-02 -7.8373837E-03 -2.7789285E-01 
      1953      3.1956007E-02 -9.9207171E-03 -2.7819851E-01 
      1954      3.1976297E-02 -5.4483939E-03 -2.7064275E-01 
      1955      3.1528764E-02 -7.5317272E-03 -2.7094841E-01 
      1956      3.1081231E-02 -9.6150606E-03 -2.7125406E-01 
      1957      3.1101521E-02 -5.1427374E-03 -2.6369831E-01 
      1958      3.0653987E-02 -7.2260708E-03 -2.6400396E-01 
      1959      3.0206454E-02 -9.3094041E-03 -2.6430962E-01 
      1960      3.0226744E-02 -4.8370809E-03 -2.5675386E-01 
      1961      2.9779211E-02 -6.9204143E-03 -2.5705952E-01 
      1962      2.9331678E-02 -9.0037476E-03 -2.5736518E-01 
      1963      2.9351967E-02 -4.5314244E-03 -2.4980942E-01 
      1964      2.8904434E-02 -6.6147578E-03 -2.5011507E-01 
      1965      2.8456901E-02 -8.6980911E-03 -2.5042073E-01 
      1966      2.8477191E-02 -4.2257680E-03 -2.4286497E-01 
      1967      2.8029658E-02 -6.3091013E-03 -2.4317063E-01 
      1968      2.7582124E-02 -8.3924346E-03 -2.4347629E-01 
      1969      2.7602414E-02 -3.9201115E-03 -2.3592053E-01 
      1970      2.7154881E-02 -6.0034448E-03 -2.3622619E-01 
      1971      2.6707348E-02 -8.0867781E-03 -2.3653184E-01 
      1972      2.6727638E-02 -3.6144550E-03 -2.2897608E-01 
      1973      2.6280104E-02 -5.6977883E-03 -2.2928174E-01 
      1974      2.5832571E-02 -7.7811217E-03 -2.2958740E-01 
      1975      2.5852861E-02 -3.3087985E-03 -2.2203164E-01 
      1976      2.5405328E-02 -5.3921318E-03 -2.2233730E-01 
      1977      2.4957794E-02 -7.4754652E-03 -2.2264295E-01 
      1978      2.4978084E-02 -3.0031420E-03 -2.1508720E-01 
      1979      2.4530551E-02 -5.0864753E-03 -2.1539285E-01 
      1980      2.4083018E-02 -7.1698087E-03 -2.1569851E-01 
      1981      2.4103308E-02 -2.6974855E-03 -2.0814275E-01 
      1982      2.3655775E-02 -4.7808189E-03 -2.0844841E-01 
      1983      2.3208241E-02 -6.8641522E-03 -2.0875406E-01 
      1984      2.3228531E-02 -2.3918290E-03 -2.0119831E-01 
      1985      2.2780998E-02 -4.4751624E-03 -2.0150396E-01 
      1986      2.2333465E-02 -6.5584957E-03 -2.0180962E-01 
      1987      2.2353755E-02 -2.0861725E-03 -1.9425386E-01 
      1988      2.1906221E-02 -4.1695059E-03 -1.9455952E-01 
      1989      2.1458688E-02 -6.2528392E-03 -1.9486518E-01 
      1990      2.1478978E-02 -1.7805161E-03 -1.8730942E-01 
      1991      2.1031445E-02 -3.8638494E-03 -1.8761507E-01 
      1992      2.0583911E-02 -5.9471827E-03 -1.8792073E-01 
      1993      2.0604201E-02 -1.4748596E-03 -1.8036497E-01 
      1994      2.0156668E-02 -3.5581929E-03 -1.8067063E-01 
      1995      1.9709135E-02 -5.6415262E-03 -1.8097629E-01 
      1996      1.9729425E-02 -1.1692031E-03 -1.7342053E-01 
      1997      1.9281892E-02 -3.2525364E-03 -1.7372619E-01 
      1998      1.8834358E-02 -5.3358697E-03 -1.7403184E-01 
      1999      1.8854648E-02 -8.6354659E-04 -1.6647608E-01 
      2000      1.8407115E-02 -2.9468799E-03 -1.6678174E-01 
      2001      1.7959582E-02 -5.0302133E-03 -1.6708740E-01 
      2002      1.7979872E-02 -5.5789010E-04 -1.5953164E-01 
      2003      1.7532338E-02 -2.6412234E-03 -1.5983730E-01 
      2004      1.7084805E-02 -4.7245568E-03 -1.6014295E-01 
      2005      1.7105095E-02 -2.5223361E-04 -1.5258720E-01 
      2006      1.6657562E-02 -2.3355669E-03 -1.5289285E-01 
      2007      1.6210028E-02 -4.4189003E-03 -1.5319851E-01 
      2008      1.6230318E-02  5.3422877E-05 -1.4564275E-01 
      2009      1.5782785E-02 -2.0299105E-03 -1.4594841E-01 
      2010      1.5335252E-02 -4.1132438E-03 -1.4625406E-01 
      2011      1.5355542E-02  3.5907936E-04 -1.3869831E-01 
      2012      1.4908008E-02 -1.7242540E-03 -1.3900396E-01 
      2013      1.4460475E-02 -3.8075873E-03 -1.3930962E-01 
      2014      1.4480765E-02  6.6473585E-04 -1.3175386E-01 
      2015      1.4033232E-02 -1.4185975E-03 -1.3205952E-01 
      2016      1.3585699E-02 -3.5019308E-03 -1.3236518E-01 
      2017      1.3605989E-02  9.7039234E-04 -1.2480942E-01 
      2018      1.3158455E-02 -1.1129410E-03 -1.2511507E-01 
      2019      1.2710922E-02 -3.1962743E-03 -1.2542073E-01 
      2020      1.2731212E-02  1.2760488E-03 -1.1786497E-01 
      2021      1.2283679E-02 -8.0728450E-04 -1.1817063E-01 
      2022      1.1836145E-02 -2.8906178E-03 -1.1847629E-01 
      2023      1.1856435E-02  1.5817053E-03 -1.1092053E-01 
      2024      1.1408902E-02 -5.0162802E-04 -1.1122619E-01 
      2025      1.0961369E-02 -2.5849613E-03 -1.1153184E-01 
      2026      1.0981659E-02  1.8873618E-03 -1.0397608E-01 
      2027      1.0534125E-02 -1.9597153E-04 -1.0428174E-01 
      2028      1.0086592E-02 -2.2793049E-03 -1.0458740E-01 
      2029      1.0106882E-02  2.1930183E-03 -9.7031640E-02 
      2030      9.6593489E-03  1.0968496E-04 -9.7337297E-02 
      2031      9.2118156E-03 -1.9736484E-03 -9.7642953E-02 
      2032      9.2321055E-03  2.4986748E-03 -9.0087196E-02 
      2033      8.7845722E-03  4.1534145E-04 -9.0392852E-02 
      2034      8.3370390E-03 -1.6679919E-03 -9.0698509E-02 
      2035      8.3573289E-03  2.8043313E-03 -8.3142751E-02 
      2036      7.9097956E-03  7.2099794E-04 -8.3448408E-02 
      2037      7.4622624E-03 -1.3623354E-03 -8.3754064E-02 
      2038      7.4825523E-03  3.1099878E-03 -7.6198307E-02 
      2039      7.0350190E-03  1.0266544E-03 -7.6503963E-02 
      2040      6.5874858E-03 -1.0566789E-03 -7.6809620E-02 
      2041      6.6077757E-03  3.4156442E-03 -6.9253862E-02 
      2042      6.1602424E-03  1.3323109E-03 -6.9559519E-02 
      2043      5.7127092E-03 -7.5102242E-04 -6.9865175E-02 
      2044      5.7329991E-03  3.7213007E-03 -6.2309418E-02 
      2045      5.2854658E-03  1.6379674E-03 -6.2615075E-02 
      2046      4.8379326E-03 -4.4536593E-04 -6.2920731E-02 
      2047      4.8582225E-03  4.0269572E-03 -5.5364974E-02 
      2048      4.4106892E-03  1.9436239E-03 -5.5670630E-02 
      2049      3.9631560E-03 -1.3970944E-04 -5.5976287E-02 
      2050      3.9834459E-03  4.3326137E-03 -4.8420529E-02 
      2051      3.5359126E-03  2.2492804E-03 -4.8726186E-02 
      2052      3.0883794E-03  1.6594705E-04 -4.9031842E-02 
      2053      3.1086692E-03  4.6382702E-03 -4.1476085E-02 
      2054      2.6611360E-03  2.5549369E-03 -4.1781741E-02 
      2055      2.2136028E-03  4.7160354E-04 -4.2087398E-02 
      2056      2.2338926E-03  4.9439267E-03 -3.4531640E-02 
      2057      1.7863594E-03  2.8605934E-03 -3.4837297E-02 
      2058      1.3388262E-03  7.7726002E-04 -3.5142953E-02 
      2059      1.3591160E-03  5.2495832E-03 -2.7587196E-02 
      2060      9.1158281E-04  3.1662498E-03 -2.7892852E-02 
      2061      4.6404957E-04  1.0829165E-03 -2.8198509E-02 
      2062      4.8433943E-04  5.5552397E-03 -2.0642751E-02 
      2063      3.6806201E-05  3.4719063E-03 -2.0948408E-02 
      2064     -4.1072703E-04  1.3885730E-03 -2.1254064E-02 
      2065     -3.9043717E-04  5.8608962E-03 -1.3698307E-02 
      2066     -8.3797040E-04  3.7775628E-03 -1.4003963E-02 
      2067     -1.2855036E-03  1.6942295E-03 -1.4309620E-02 
      2068     -1.2652138E-03  6.1665526E-03 -6.7538625E-03 
      2069     -1.7127470E-03  4.0832193E-03 -7.0595190E-03 
      2070     -2.1602802E-03  1.9998860E-03 -7.3651755E-03 
      2071     -2.1399904E-03  6.4722091E-03  1.9058195E-04 
      2072     -2.5875236E-03  4.3888758E-03 -1.1507454E-04 
      2073     -3.0350568E-03  2.3055425E-03 -4.2073103E-04 
      2074     -3.0147670E-03  6.7778656E-03  7.1350264E-03 
      2075     -3.4623002E-03  4.6945323E-03  6.8293699E-03 
      2076     -3.9098335E-03  2.6111990E-03  6.5237134E-03 
      2077     -3.8895436E-03  7.0835221E-03  1.4079471E-02 
      2078     -4.3370768E-03  5.0001888E-03  1.3773814E-02 
      2079     -4.7846101E-03  2.9168554E-03  1.3468158E-02 
      2080     -4.7643202E-03  7.3891786E-03  2.1023915E-02 
      2081     -5.2118534E-03  5.3058453E-03  2.0718259E-02 
      2082     -5.6593867E-03  3.2225119E-03  2.0412602E-02 
      2083     -5.6390968E-03  7.6948351E-03  2.7968360E-02 
      2084     -6.0866300E-03  5.6115018E-03  2.7662703E-02 
      2085     -6.5341633E-03  3.5281684E-03  2.7357047E-02 
      2086     -6.5138734E-03  8.0004916E-03  3.4912804E-02 
      2087     -6.9614066E-03  5.9171582E-03  3.4607148E-02 
      2088     -7.4089399E-03  3.8338249E-03  3.4301491E-02 
      2089     -7.3886500E-03  8.3061481E-03  4.1857249E-02 
      2090     -7.8361832E-03  6.2228147E-03  4.1551592E-02 
      2091     -8.2837165E-03  4.1394814E-03  4.1245936E-02 
      2092     -8.2634266E-03  8.6118046E-03  4.8801693E-02 
      2093     -8.7109598E-03  6.5284712E-03  4.8496037E-02 
      2094     -9.1584931E-03  4.4451379E-03  4.8190380E-02 
      2095     -9.1382032E-03  8.9174610E-03  5.5746138E-02 
      2096     -9.5857364E-03  6.8341277E-03  5.5440481E-02 
      2097     -1.0033270E-02  4.7507944E-03  5.5134825E-02 
      2098     -1.0012980E-02  9.2231175E-03  6.2690582E-02 
      2099     -1.0460513E-02  7.1397842E-03  6.2384925E-02 
      2100     -1.0908046E-02  5.0564509E-03  6.2079269E-02 
      2101     -1.0887756E-02  9.5287740E-03  6.9635026E-02 
      2102     -1.1335290E-02  7.4454407E-03  6.9329370E-02 
      2103     -1.1782823E-02  5.3621073E-03  6.9023713E-02 
      2104     -1.1762533E-02  9.8344305E-03  7.6579471E-02 
      2105     -1.2210066E-02  7.7510972E-03  7.6273814E-02 
      2106     -1.2657599E-02  5.6677638E-03  7.5968158E-02 
      2107     -1.2637310E-02  1.0140087E-02  8.3523915E-02 
      2108     -1.3084843E-02  8.0567537E-03  8.3218259E-02 
      2109     -1.3532376E-02  5.9734203E-03  8.2912602E-02 
      2110     -1.3512086E-02  1.0445743E-02  9.0468360E-02 
      2111     -1.3959619E-02  8.3624101E-03  9.0162703E-02 
      2112     -1.4407153E-02  6.2790768E-03  8.9857047E-02 
      2113     -1.4386863E-02  1.0751400E-02  9.7412804E-02 
      2114     -1.4834396E-02  8.6680666E-03  9.7107148E-02 
      2115     -1.5281929E-02  6.5847333E-03  9.6801491E-02 
      2116     -1.5261639E-02  1.1057056E-02  1.0435725E-01 
      2117     -1.5709173E-02  8.9737231E-03  1.0405159E-01 
      2118     -1.6156706E-02  6.8903898E-03  1.0374594E-01 
      2119     -1.6136416E-02  1.1362713E-02  1.1130169E-01 
      2120     -1.6583949E-02  9.2793796E-03  1.1099604E-01 
      2121     -1.7031483E-02  7.1960463E-03  1.1069038E-01 
      2122     -1.7011193E-02  1.1668369E-02  1.1824614E-01 
      2123     -1.7458726E-02  9.5850361E-03  1.1794048E-01 
      2124     -1.7906259E-02  7.5017028E-03  1.1763482E-01 
      2125     -1.7885969E-02  1.1974026E-02  1.2519058E-01 
      2126     -1.8333502E-02  9.8906926E-03  1.2488493E-01 
      2127     -1.8781036E-02  7.8073593E-03  1.2457927E-01 
      2128     -1.8760746E-02  1.2279682E-02  1.3213503E-01 
      2129     -1.9208279E-02  1.0196349E-02  1.3182937E-01 
      2130     -1.9655812E-02  8.1130157E-03  1.3152371E-01 
      2131     -1.9635522E-02  1.2585339E-02  1.3907947E-01 
      2132     -2.0083056E-02  1.0502006E-02  1.3877381E-01 
      2133     -2.0530589E-02  8.4186722E-03  1.3846816E-01 
      2134     -2.0510299E-02  1.2890995E-02  1.4602392E-01 
      2135     -2.0957832E-02  1.0807662E-02  1.4571826E-01 
      2136     -2.1405366E-02  8.7243287E-03  1.4541260E-01 
      2137     -2.1385076E-02  1.3196652E-02  1.5296836E-01 
      2138     -2.1832609E-02  1.1113319E-02  1.5266270E-01 
      2139     -2.2280142E-02  9.0299852E-03  1.5235705E-01 
      2140     -2.2259852E-02  1.3502308E-02  1.5991280E-01 
      2141     -2.2707386E-02  1.1418975E-02  1.5960715E-01 
      2142     -2.3154919E-02  9.3356417E-03  1.5930149E-01 
      2143     -2.3134629E-02  1.3807965E-02  1.6685725E-01 
      2144     -2.3582162E-02  1.1724632E-02  1.6655159E-01 
      2145     -2.4029695E-02  9.6412982E-03  1.6624594E-01 
      2146     -2.4009405E-02  1.4113621E-02  1.7380169E-01 
      2147     -2.4456939E-02  1.2030288E-02  1.7349604E-01 
      2148     -2.4904472E-02  9.9469547E-03  1.7319038E-01 
      2149     -2.4884182E-02  1.4419278E-02  1.8074614E-01 
      2150     -2.5331715E-02  1.2335944E-02  1.8044048E-01 
      2151     -2.5779249E-02  1.0252611E-02  1.8013482E-01 
      2152     -2.5758959E-02  1.4724934E-02  1.8769058E-01 
      2153     -2.6206492E-02  1.2641601E-02  1.8738493E-01 
      2154     -2.6654025E-02  1.0558268E-02  1.8707927E-01 
      2155     -2.6633735E-02  1.5030591E-02  1.9463503E-01 
      2156     -2.7081269E-02  1.2947257E-02  1.9432937E-01 
      2157     -2.7528802E-02  1.0863924E-02  1.9402371E-01 
      2158     -2.7508512E-02  1.5336247E-02  2.0157947E-01 
      2159     -2.7956045E-02  1.3252914E-02  2.0127381E-01 
      2160     -2.8403578E-02  1.1169581E-02  2.0096816E-01 
      2161     -2.8383289E-02  1.5641904E-02  2.0852392E-01 
      2162     -2.8830822E-02  1.3558570E-02  2.0821826E-01 
      2163     -2.9278355E-02  1.1475237E-02  2.0791260E-01 
      2164     -2.9258065E-02  1.5947560E-02  2.1546836E-01 
      2165     -2.9705598E-02  1.3864227E-02  2.1516270E-01 
      2166     -3.0153132E-02  1.1780894E-02  2.1485705E-01 
      2167     -3.0132842E-02  1.6253217E-02  2.2241280E-01 
      2168     -3.0580375E-02  1.4169883E-02  2.2210715E-01 
      2169     -3.1027908E-02  1.2086550E-02  2.2180149E-01 
      2170     -3.1007618E-02  1.6558873E-02  2.2935725E-01 
      2171     -3.1455152E-02  1.4475540E-02  2.2905159E-01 
      2172     -3.1902685E-02  1.2392207E-02  2.2874594E-01 
      2173     -3.1882395E-02  1.6864530E-02  2.3630169E-01 
      2174     -3.2329928E-02  1.4781196E-02  2.3599604E-01 
      2175     -3.2777461E-02  1.2697863E-02  2.3569038E-01 
      2176     -3.2757172E-02  1.7170186E-02  2.4324614E-01 
      2177     -3.3204705E-02  1.5086853E-02  2.4294048E-01 
      2178     -3.3652238E-02  1.3003520E-02  2.4263482E-01 
      2179     -3.3631948E-02  1.7475843E-02  2.5019058E-01 
      2180     -3.4079481E-02  1.5392509E-02  2.4988493E-01 
      2181     -3.4527015E-02  1.3309176E-02  2.4957927E-01 
      2182     -3.4506725E-02  1.7781499E-02  2.5713503E-01 
      2183     -3.4954258E-02  1.5698166E-02  2.5682937E-01 
      2184     -3.5401791E-02  1.3614833E-02  2.5652371E-01 
      2185     -3.5381501E-02  1.8087156E-02  2.6407947E-01 
      2186     -3.5829035E-02  1.6003822E-02  2.6377381E-01 
      2187     -3.6276568E-02  1.3920489E-02  2.6346816E-01 

 MAXIMUM         5.1267E-02  1.8087E-02  0.2641    
 AT NODE                 1        2185        2185

 MINIMUM        -3.6277E-02 -1.4112E-02 -0.2991    
 AT NODE              2187           3           3


          THE ANALYSIS HAS BEEN COMPLETED



                              ANALYSIS COMPLETE
                              WITH      7 WARNING MESSAGES ON THE MSG FILE
                                        5 WARNINGS ARE FOR NUMERICAL PROBLEMS
                                        1 WARNINGS ARE FOR NEGATIVE EIGENVALUES



     JOB TIME SUMMARY
       USER TIME (SEC)      =   1.1000    
       SYSTEM TIME (SEC)    =  0.30000    
       TOTAL CPU TIME (SEC) =   1.4000    
       WALLCLOCK TIME (SEC) =          4
