*Heading
** Job name: Job-1 Model name: Model-1
** Generated by: Abaqus/CAE 2022
*Preprint, echo=NO, model=NO, history=NO, contact=NO
**
** PARTS
**
*Part, name=Part-1
*Node
      1,          15.,          10.,          20.
      2,          15.,           5.,          20.
      3,          15.,           0.,          20.
      4,          15.,          10.,    13.333333
      5,          15.,           5.,    13.333333
      6,          15.,           0.,    13.333333
      7,          15.,          10.,   6.66666651
      8,          15.,           5.,   6.66666651
      9,          15.,           0.,   6.66666651
     10,          15.,          10.,           0.
     11,          15.,           5.,           0.
     12,          15.,           0.,           0.
     13,          10.,          10.,          20.
     14,          10.,           5.,          20.
     15,          10.,           0.,          20.
     16,          10.,          10.,    13.333333
     17,          10.,           5.,    13.333333
     18,          10.,           0.,    13.333333
     19,          10.,          10.,   6.66666651
     20,          10.,           5.,   6.66666651
** ... 28 like lines cut
*Element, type=C3D8R
 1, 13, 14, 17, 16,  1,  2,  5,  4
 2, 14, 15, 18, 17,  2,  3,  6,  5
 3, 16, 17, 20, 19,  4,  5,  8,  7
 4, 17, 18, 21, 20,  5,  6,  9,  8
 5, 19, 20, 23, 22,  7,  8, 11, 10
 6, 20, 21, 24, 23,  8,  9, 12, 11
 7, 25, 26, 29, 28, 13, 14, 17, 16
 8, 26, 27, 30, 29, 14, 15, 18, 17
 9, 28, 29, 32, 31, 16, 17, 20, 19
10, 29, 30, 33, 32, 17, 18, 21, 20
11, 31, 32, 35, 34, 19, 20, 23, 22
12, 32, 33, 36, 35, 20, 21, 24, 23
13, 37, 38, 41, 40, 25, 26, 29, 28
14, 38, 39, 42, 41, 26, 27, 30, 29
15, 40, 41, 44, 43, 28, 29, 32, 31
16, 41, 42, 45, 44, 29, 30, 33, 32
17, 43, 44, 47, 46, 31, 32, 35, 34
18, 44, 45, 48, 47, 32, 33, 36, 35
*Nset, nset=_PickedSet2, internal, generate
  1,  48,   1
*Elset, elset=_PickedSet2, internal, generate
  1,  18,   1
** Section: Section-1
*Solid Section, elset=_PickedSet2, material=Material-1
,
*End Part
**  
**
** ASSEMBLY
**
*Assembly, name=Assembly
**  
*Instance, name=Part-1-1, part=Part-1
*End Instance
**  
*Nset, nset=_PickedSet4, internal, instance=Part-1-1, generate
  1,  48,   1
*Elset, elset=_PickedSet4, internal, instance=Part-1-1, generate
  1,  18,   1
*End Assembly
** 
** MATERIALS
** 
*Material, name=Material-1
*Elastic
2993., 0.3
** 
** PREDEFINED FIELDS
** 
** Name: Predefined Field-1   Type: Stress
*Initial Conditions, type=STRESS
_PickedSet4, 100., 0., 0., 0., 0., 0.
** ----------------------------------------------------------------
** 
** STEP: Equilbrium
** 
*Step, name=Equilbrium, nlgeom=NO
*Static
1., 1., 1e-05, 1.
** 
** OUTPUT REQUESTS
** 
*Restart, write, frequency=0
** 
** FIELD OUTPUT: F-Output-1
** 
*Output, field, variable=PRESELECT
** 
** HISTORY OUTPUT: H-Output-1
** 
*Output, history, variable=PRESELECT
*End Step
