*Heading
** Job name: Job-2 Model name: Job-1
** Generated by: Abaqus/CAE 2022
*Preprint, echo=NO, model=NO, history=NO, contact=NO
**
** PARTS
**
*Part, name=PART-1-1
*Node
      1,          15.,           0.,          20.
      2,    14.318182,           0.,          20.
      3,    13.636364,           0.,          20.
      4,    12.954545,           0.,          20.
      5,    12.272727,           0.,          20.
      6,    11.590909,           0.,          20.
      7,    10.909091,           0.,          20.
      8,    10.227273,           0.,          20.
      9,   9.54545498,           0.,          20.
     10,   8.86363602,           0.,          20.
     11,   8.18181801,           0.,          20.
     12,          7.5,           0.,          20.
     13,   6.81818199,           0.,          20.
     14,   6.13636351,           0.,          20.
     15,    5.4545455,           0.,          20.
     16,   4.77272749,           0.,          20.
     17,     4.090909,           0.,          20.
     18,     3.409091,           0.,          20.
     19,   2.72727275,           0.,          20.
     20,    2.0454545,           0.,          20.
** ... 11388 like lines cut
*Element, type=C3D8R
   1,   714,   715,   738,   737,     1,     2,    25,    24
   2,   715,   716,   739,   738,     2,     3,    26,    25
   3,   716,   717,   740,   739,     3,     4,    27,    26
   4,   717,   718,   741,   740,     4,     5,    28,    27
   5,   718,   719,   742,   741,     5,     6,    29,    28
   6,   719,   720,   743,   742,     6,     7,    30,    29
   7,   720,   721,   744,   743,     7,     8,    31,    30
   8,   721,   722,   745,   744,     8,     9,    32,    31
   9,   722,   723,   746,   745,     9,    10,    33,    32
  10,   723,   724,   747,   746,    10,    11,    34,    33
  11,   724,   725,   748,   747,    11,    12,    35,    34
  12,   725,   726,   749,   748,    12,    13,    36,    35
  13,   726,   727,   750,   749,    13,    14,    37,    36
  14,   727,   728,   751,   750,    14,    15,    38,    37
  15,   728,   729,   752,   751,    15,    16,    39,    38
  16,   729,   730,   753,   752,    16,    17,    40,    39
  17,   730,   731,   754,   753,    17,    18,    41,    40
  18,   731,   732,   755,   754,    18,    19,    42,    41
  19,   732,   733,   756,   755,    19,    20,    43,    42
  20,   733,   734,   757,   756,    20,    21,    44,    43
** ... 9880 like lines cut
*Nset, nset=_PickedSet90, internal, generate
     1,  11408,      1
*Elset, elset=_PickedSet90, internal, generate
    1,  9900,     1
** Section: Section-ASSEMBLY_PART-1-1__PICKEDSET2
*Solid Section, elset=_PickedSet90, material=MATERIAL-1
0.,
*End Part
**  
**
** ASSEMBLY
**
*Assembly, name=Assembly
**  
*Instance, name=PART-1-1-1, part=PART-1-1
*End Instance
**  
*End Assembly
** 
** MATERIALS
** 
*Material, name=MATERIAL-1
*Elastic
2993., 0.3
** 
** PHYSICAL CONSTANTS
** 
*Physical Constants, absolute zero=0., stefan boltzmann=0.
** 
** PREDEFINED FIELDS
** 
** Name: Predefined Field-1   Type: Stress
*Initial Conditions, type=STRESS, file=/home/andlars/Desktop/Job-1.odb, step=1, inc=1
** ----------------------------------------------------------------
** 
** STEP: Equilibrium
** 
*Step, name=Equilibrium, nlgeom=NO
*Static
1., 1., 1e-05, 1.
** 
** OUTPUT REQUESTS
** 
*Restart, write, frequency=0
** 
** FIELD OUTPUT: F-Output-1
** 
*Output, field, variable=PRESELECT
** 
** HISTORY OUTPUT: H-Output-1
** 
*Output, history, variable=PRESELECT
*End Step
