*Heading
** Job name: Post_Tool_Pass_2 Model name: Model-3
** Generated by: Abaqus/CAE 2023
*Preprint, echo=NO, model=NO, history=NO, contact=NO
**
** PARTS
**
*Part, name=Post_Tool_Pass_2
*End Part
**  
**
** ASSEMBLY
**
*Assembly, name=Assembly
**  
*Instance, name=Post_Tool_Pass_2, part=Post_Tool_Pass_2
*Node
      1,           0.,          10.,         400.
      2,           0.,           0.,         400.
      3,          40.,           0.,         400.
      4,          40.,          10.,         400.
      5,          40.,           0.,           0.
      6,           0.,           0.,           0.
      7,          40.,           9.,         215.
      8,          40.,          10.,          40.
      9,          40.,           5.,          40.
     10,          40.,          10.,           0.
     11,          40.,           5.,          80.
     12,          40.,          10.,          80.
     13,          40.,           9.,         185.
     14,          40.,          10.,         360.
     15,          40.,          10.,         215.
     16,          40.,          10.,         185.
     17,           0.,          10.,         360.
     18,           0.,          10.,          80.
     19,           0.,          10.,          40.
     20,           0.,          10.,           0.
** ... 66 like lines cut
*Element, type=C3D4
  1, 78, 14, 46, 47
  2, 79, 45, 62, 69
  3, 80, 17, 69, 48
  4, 80, 17, 48, 47
  5, 80, 17, 14, 62
  6, 45, 48, 69, 79
  7, 81, 59, 42, 41
  8, 51, 72, 82, 42
  9, 24, 15, 72, 81
 10, 26, 24, 15, 72
 11, 81,  7, 24, 15
 12, 83, 52, 41,  7
 13, 72, 81, 42, 51
 14, 82, 72, 71, 59
 15, 59, 81, 42, 72
 16, 84, 50, 71, 60
 17, 82, 71, 51, 50
 18, 82, 42, 43, 50
 19, 82, 71, 60, 59
 20, 44, 70, 49, 79
** ... 164 like lines cut
*Nset, nset=simple_set, generate
  1,  86,   1
*Elset, elset=simple_set, generate
   1,  184,    1
** Section: Section-ASSEMBLY_POST_TOOL_PASS_1_SIMPLE_SET
*Solid Section, elset=simple_set, material=MATERIAL-1
0.,
*End Instance
**  
*Nset, nset=_PickedSet18, internal, instance=Post_Tool_Pass_2
  1,  2,  6, 17, 18, 19, 20, 21, 22, 23, 24, 25, 26, 47, 48, 49
 50, 51, 52, 53, 54, 55, 56, 57, 58, 66, 67, 68, 69, 70, 71, 72
*Elset, elset=_PickedSet18, internal, instance=Post_Tool_Pass_2
   3,   4,  10,  17,  25,  32,  38,  44,  53,  54,  55,  58,  61,  62,  64,  69
  74,  75,  84,  95,  97, 103, 107, 116, 120, 121, 134, 139, 159, 173
*Nset, nset=_PickedSet22, internal, instance=Post_Tool_Pass_2
  1,  4, 14, 17
*Elset, elset=_PickedSet22, internal, instance=Post_Tool_Pass_2
  36, 108
*End Assembly
** 
** MATERIALS
** 
*Material, name=MATERIAL-1
*Elastic
 1.9e+11, 0.3
** 
** PHYSICAL CONSTANTS
** 
*Physical Constants, absolute zero=0., stefan boltzmann=0.
** 
** BOUNDARY CONDITIONS
** 
** Name: Boundary_Condition_0 Type: Displacement/Rotation
*Boundary
_PickedSet18, 1, 1
_PickedSet18, 2, 2
_PickedSet18, 3, 3
_PickedSet18, 4, 4
_PickedSet18, 5, 5
_PickedSet18, 6, 6
** Name: Boundary_Condition_1 Type: Displacement/Rotation
*Boundary
_PickedSet22, 1, 1
_PickedSet22, 2, 2
_PickedSet22, 3, 3
_PickedSet22, 4, 4
_PickedSet22, 5, 5
_PickedSet22, 6, 6
** ----------------------------------------------------------------
** 
** STEP: Equilibrium2
** 
*Initial Conditions, Type=Stress
*External Field, File=POST_TOOL_PASS_1.sim
 , , , , ,S, , 
*Step, name=Equilibrium2, nlgeom=NO
*Static
1., 1., 1e-05, 1.
** 
** OUTPUT REQUESTS
** 
*Restart, write, frequency=0
** 
** FIELD OUTPUT: F-Output-1
** 
*Output, field, variable=PRESELECT
** 
** HISTORY OUTPUT: H-Output-1
** 
*Output, history, variable=PRESELECT
*End Step
