*Heading
** Job name: Post_Tool_Pass_2 Model name: Model-3
** Generated by: Abaqus/CAE 2023
*Preprint, echo=NO, model=NO, history=NO, contact=NO
**
** PARTS
**
*Part, name=Post_Tool_Pass_2
*End Part
**  
**
** ASSEMBLY
**
*Assembly, name=Assembly
**  
*Instance, name=Post_Tool_Pass_2, part=Post_Tool_Pass_2
*Node
      1,           0.,          10.,         400.
      2,           0.,           0.,         400.
      3,          40.,           0.,         400.
      4,          40.,          10.,         400.
      5,          40.,           0.,           0.
      6,           0.,           0.,           0.
      7,          40.,           5.,          80.
      8,          40.,          10.,           0.
      9,          40.,          10.,          40.
     10,          40.,           5.,          40.
     11,          40.,           9.,         185.
     12,          40.,          10.,         360.
     13,          40.,          10.,          80.
     14,          40.,           9.,         215.
     15,          40.,          10.,         185.
     16,          40.,          10.,         215.
     17,           0.,           5.,          80.
     18,           0.,           5.,          40.
     19,           0.,          10.,          40.
     20,           0.,          10.,           0.
** ... 66 like lines cut
*Element, type=C3D4
  1, 78, 79, 70, 71
  2, 43, 78, 79, 44
  3, 80, 46,  3,  2
  4, 12, 47, 22, 81
  5, 80,  4, 12,  1
  6, 80,  1, 12, 22
  7, 80, 47, 46,  2
  8, 80, 47, 22, 12
  9, 82, 23, 21, 11
 10, 82, 23, 11, 40
 11, 83, 53, 40, 23
 12, 84, 14, 41, 52
 13, 14, 21, 52, 84
 14, 82, 41, 40, 14
 15, 42, 84, 51, 59
 16, 84, 59, 42, 41
 17, 59, 84, 51, 72
 18, 84, 59, 41, 14
 19, 84, 72, 25, 21
 20, 59, 25, 14, 84
** ... 160 like lines cut
*Nset, nset=simple_set, generate
  1,  86,   1
*Elset, elset=simple_set, generate
   1,  180,    1
** Section: Section-ASSEMBLY_POST_TOOL_PASS_1_SIMPLE_SET
*Solid Section, elset=simple_set, material=MATERIAL-1
0.,
*End Instance
**  
*Nset, nset=_PickedSet19, internal, instance=Post_Tool_Pass_2
  8,  9, 19, 20
*Elset, elset=_PickedSet19, internal, instance=Post_Tool_Pass_2
  73, 154
*Nset, nset=_PickedSet21, internal, instance=Post_Tool_Pass_2
  1,  4, 12, 22
*Elset, elset=_PickedSet21, internal, instance=Post_Tool_Pass_2
 5, 6
*End Assembly
** 
** MATERIALS
** 
*Material, name=MATERIAL-1
*Elastic
 1.9e+11, 0.3
** 
** PHYSICAL CONSTANTS
** 
*Physical Constants, absolute zero=0., stefan boltzmann=0.
** 
** BOUNDARY CONDITIONS
** 
** Name: Boundary_Condition_0 Type: Displacement/Rotation
*Boundary
_PickedSet19, 1, 1
_PickedSet19, 2, 2
_PickedSet19, 3, 3
_PickedSet19, 4, 4
_PickedSet19, 5, 5
_PickedSet19, 6, 6
** Name: Boundary_Condition_1 Type: Displacement/Rotation
*Boundary
_PickedSet21, 1, 1
_PickedSet21, 2, 2
_PickedSet21, 3, 3
_PickedSet21, 4, 4
_PickedSet21, 5, 5
_PickedSet21, 6, 6
** ----------------------------------------------------------------
** 
** STEP: Equilibrium2
** 
*Initial Conditions, Type=Stress
*External Field, File=POST_TOOL_PASS_1.sim
 , , , , ,S, , 
*Step, name=Equilibrium2, nlgeom=NO
*Static
1., 1., 1e-05, 1.
** 
** OUTPUT REQUESTS
** 
*Restart, write, frequency=0
** 
** FIELD OUTPUT: F-Output-1
** 
*Output, field, variable=PRESELECT
** 
** HISTORY OUTPUT: H-Output-1
** 
*Output, history, variable=PRESELECT
*End Step
