*Heading
** Job name: Post_Tool_Pass_0 Model name: Model-1
** Generated by: Abaqus/CAE 2023
*Preprint, echo=NO, model=NO, history=NO, contact=NO
**
** PARTS
**
*Part, name=Post_Tool_Pass_0
*End Part
**  
**
** ASSEMBLY
**
*Assembly, name=Assembly
**  
*Instance, name=Post_Tool_Pass_0, part=Post_Tool_Pass_0
*Node
      1,           0.,          10.,         215.
      2,           0.,           9.,         215.
      3,           0.,           9.,         185.
      4,           0.,          10.,         185.
      5,           0.,          10.,           0.
      6,           0.,           0.,           0.
      7,           0.,           0.,         400.
      8,           0.,          10.,         400.
      9,          40.,           9.,         215.
     10,          40.,           9.,         185.
     11,          40.,          10.,         185.
     12,          40.,          10.,           0.
     13,          40.,           0.,           0.
     14,          40.,           0.,         400.
     15,          40.,          10.,         400.
     16,          40.,          10.,         215.
     17,           0.,          10.,   154.166672
     18,           0.,          10.,   123.333336
     19,           0.,          10.,         92.5
     20,           0.,          10.,   61.6666679
** ... 55 like lines cut
*Element, type=C3D4
  1, 12, 63, 21,  5
  2, 64, 58, 59, 35
  3, 65, 17, 27,  3
  4, 20, 21, 44, 66
  5, 39, 53, 67, 62
  6, 53, 68, 39, 30
  7, 68, 61, 62, 38
  8, 54, 68, 38, 61
  9, 38, 54, 69, 31
 10, 68, 30, 54, 31
 11, 64, 35, 34, 57
 12, 70, 58, 57, 35
 13,  7, 14, 34,  8
 14, 14, 34,  8, 70
 15, 70, 58,  8, 15
 16, 70, 15,  8, 14
 17, 57, 35, 34, 70
 18, 64, 33, 57, 34
 19, 35, 58, 57, 64
 20, 36, 56, 33, 71
** ... 144 like lines cut
*Nset, nset=simple_set, generate
  1,  75,   1
*Elset, elset=simple_set, generate
   1,  164,    1
** Section: Section-1
*Solid Section, elset=simple_set, material=Material-1
,
*End Instance
**  
*Nset, nset=_PickedSet18, internal, instance=Post_Tool_Pass_0
  1,  2,  3,  4,  5,  6,  7,  8, 17, 18, 19, 20, 21, 22, 23, 24
 25, 26, 27, 28, 29, 30, 31, 32, 33, 34, 35, 36, 37, 38, 39
*Elset, elset=_PickedSet18, internal, instance=Post_Tool_Pass_0
   3,  13,  34,  43,  48,  52,  58,  65, 103, 106, 109, 110, 113, 114, 115, 116
 118, 121, 123, 124, 129, 134, 145, 146, 148, 152, 154, 155, 157
*Nset, nset=_PickedSet19, internal, instance=Post_Tool_Pass_0
  1,  2,  3,  4,  5,  6,  7,  8, 17, 18, 19, 20, 21, 22, 23, 24
 25, 26, 27, 28, 29, 30, 31, 32, 33, 34, 35, 36, 37, 38, 39
*Elset, elset=_PickedSet19, internal, instance=Post_Tool_Pass_0
   3,  13,  34,  43,  48,  52,  58,  65, 103, 106, 109, 110, 113, 114, 115, 116
 118, 121, 123, 124, 129, 134, 145, 146, 148, 152, 154, 155, 157
*End Assembly
** 
** MATERIALS
** 
*Material, name=Material-1
*Elastic
 1.9e+11, 0.3
** 
** BOUNDARY CONDITIONS
** 
** Name: Boundary_Condition_0 Type: Displacement/Rotation
*Boundary
_PickedSet18, 1, 1
_PickedSet18, 2, 2
_PickedSet18, 3, 3
_PickedSet18, 4, 4
_PickedSet18, 5, 5
_PickedSet18, 6, 6
** Name: Boundary_Condition_1 Type: Displacement/Rotation
*Boundary
_PickedSet19, 1, 1
_PickedSet19, 2, 2
_PickedSet19, 3, 3
_PickedSet19, 4, 4
_PickedSet19, 5, 5
_PickedSet19, 6, 6
** ----------------------------------------------------------------
** 
** STEP: Equilibrium2
** 
*Initial Conditions, Type=Stress, User
*Step, name=Equilibrium2, nlgeom=NO
*Static
1., 1., 1e-05, 1.
** 
** OUTPUT REQUESTS
** 
*Restart, write, frequency=0
** 
** FIELD OUTPUT: F-Output-1
** 
*Output, field, variable=PRESELECT
** 
** HISTORY OUTPUT: H-Output-1
** 
*Output, history, variable=PRESELECT
*End Step
