*Heading
 Generate the Stiffness Matrix!
** Job name: StiffnessMatrixGen Model name: Model-1
** Generated by: Abaqus/CAE 2022
*Preprint, echo=NO, model=NO, history=NO, contact=NO
**
** PARTS
**
*Part, name=Bar
*Node
      1,          40.,          10.,         400.
      2,          40.,           0.,         400.
      3,          40.,          10.,         390.
      4,          40.,           0.,         390.
      5,          40.,          10.,         380.
      6,          40.,           0.,         380.
      7,          40.,          10.,         370.
      8,          40.,           0.,         370.
      9,          40.,          10.,         360.
     10,          40.,           0.,         360.
     11,          40.,          10.,         350.
     12,          40.,           0.,         350.
     13,          40.,          10.,         340.
     14,          40.,           0.,         340.
     15,          40.,          10.,         330.
     16,          40.,           0.,         330.
     17,          40.,          10.,         320.
     18,          40.,           0.,         320.
     19,          40.,          10.,         310.
     20,          40.,           0.,         310.
** ... 390 like lines cut
*Element, type=C3D8I
  1,  83,  84,  86,  85,   1,   2,   4,   3
  2,  85,  86,  88,  87,   3,   4,   6,   5
  3,  87,  88,  90,  89,   5,   6,   8,   7
  4,  89,  90,  92,  91,   7,   8,  10,   9
  5,  91,  92,  94,  93,   9,  10,  12,  11
  6,  93,  94,  96,  95,  11,  12,  14,  13
  7,  95,  96,  98,  97,  13,  14,  16,  15
  8,  97,  98, 100,  99,  15,  16,  18,  17
  9,  99, 100, 102, 101,  17,  18,  20,  19
 10, 101, 102, 104, 103,  19,  20,  22,  21
 11, 103, 104, 106, 105,  21,  22,  24,  23
 12, 105, 106, 108, 107,  23,  24,  26,  25
 13, 107, 108, 110, 109,  25,  26,  28,  27
 14, 109, 110, 112, 111,  27,  28,  30,  29
 15, 111, 112, 114, 113,  29,  30,  32,  31
 16, 113, 114, 116, 115,  31,  32,  34,  33
 17, 115, 116, 118, 117,  33,  34,  36,  35
 18, 117, 118, 120, 119,  35,  36,  38,  37
 19, 119, 120, 122, 121,  37,  38,  40,  39
 20, 121, 122, 124, 123,  39,  40,  42,  41
** ... 140 like lines cut
*Nset, nset=Set-1, generate
   1,  410,    1
*Elset, elset=Set-1, generate
   1,  160,    1
** Section: BarSection
*Solid Section, elset=Set-1, material=Metal
,
*End Part
**  
**
** ASSEMBLY
**
*Assembly, name=Assembly
**  
*Instance, name=Bar-1, part=Bar
*End Instance
**  
*End Assembly
** 
** MATERIALS
** 
*Material, name=Metal
*Elastic
209000., 0.3
