*Heading
** Job name: Job-1 Model name: Model-1
** Generated by: Abaqus/CAE 2023
*Preprint, echo=NO, model=NO, history=NO, contact=NO
**
** PARTS
**
*Part, name=Post_Tool_Pass_1
*End Part
**  
**
** ASSEMBLY
**
*Assembly, name=Assembly
**  
*Instance, name=Post_Tool_Pass_1, part=Post_Tool_Pass_1
*Node
      1,           0.,           5.,   88.9765778
      2,           0.,           5.,   91.0466156
      3,           0.,          10.,   91.0466156
      4,           0.,          10.,   88.9765778
      5,           0.,          10.,          40.
      6,           0.,          10.,           0.
      7,           0.,           0.,           0.
      8,           0.,           0.,         400.
      9,           0.,          10.,         400.
     10,           0.,          10.,         360.
     11,          40.,          10.,         360.
     12,          40.,          10.,         400.
     13,          40.,          10.,          40.
     14,          40.,          10.,           0.
     15,          40.,           0.,           0.
     16,          40.,           0.,         400.
     17,           0.,           5.,   90.0115967
     18,  0.378015012,           5.,   90.9406052
     19,  0.654158711,           5.,   90.9153976
     20,  0.894509912,           5.,   90.9386444
** ... 691 like lines cut
*Element, type=C3D4
   1, 514, 515, 516, 517
   2, 515, 518, 516, 519
   3, 520, 521, 518, 515
   4, 522, 523, 524, 525
   5, 515, 519, 516, 517
   6, 182, 183, 526, 527
   7, 528, 529, 530, 515
   8, 531, 532, 533, 534
   9, 531, 535, 536, 537
  10, 518,  91, 538, 539
  11, 531, 540, 537, 541
  12, 542, 543, 544, 531
  13, 545, 546, 547, 548
  14,  38, 549, 550, 551
  15, 196, 550, 523,  40
  16, 552, 533, 553, 545
  17, 545, 554, 555, 547
  18, 545, 554, 546, 556
  19, 547, 552, 555, 545
  20, 557, 547, 552, 555
** ... 2450 like lines cut
*Nset, nset=simple_set, generate
   1,  711,    1
*Elset, elset=simple_set, generate
    1,  2470,     1
** Section: Section-1
*Solid Section, elset=simple_set, material=Material-1
,
*End Instance
**  
*Nset, nset=_PickedSet13, internal, instance=Post_Tool_Pass_1
   5,   6,  13,  14, 116, 171, 172, 173, 494
*Elset, elset=_PickedSet13, internal, instance=Post_Tool_Pass_1
  897, 1276, 1277, 1600, 2220, 2221, 2228, 2232
*Nset, nset=_PickedSet20, internal, instance=Post_Tool_Pass_1
   9,  10,  11,  12, 136, 153, 154, 155, 253
*Elset, elset=_PickedSet20, internal, instance=Post_Tool_Pass_1
  142,  932, 1545, 1737, 2157, 2393, 2449, 2455
*End Assembly
** 
** MATERIALS
** 
*Material, name=Material-1
*Elastic
 1e+09, 0.3
** 
** BOUNDARY CONDITIONS
** 
** Name: Boundary_Condition_0 Type: Displacement/Rotation
*Boundary
_PickedSet13, 1, 1
_PickedSet13, 2, 2
_PickedSet13, 3, 3
_PickedSet13, 4, 4
_PickedSet13, 5, 5
_PickedSet13, 6, 6
** Name: Boundary_Condition_1 Type: Displacement/Rotation
*Boundary
_PickedSet20, 1, 1
_PickedSet20, 2, 2
_PickedSet20, 3, 3
_PickedSet20, 4, 4
_PickedSet20, 5, 5
_PickedSet20, 6, 6
** ----------------------------------------------------------------
** 
** STEP: Equilibrium2
** 
*Initial Conditions, Type=Stress, User
*Step, name=Equilibrium2, nlgeom=NO
*Static
1., 1., 1e-05, 1.
** 
** OUTPUT REQUESTS
** 
*Restart, write, frequency=0
** 
** FIELD OUTPUT: F-Output-1
** 
*Output, field, variable=PRESELECT
** 
** HISTORY OUTPUT: H-Output-1
** 
*Output, history, variable=PRESELECT
*End Step
