*Heading
** Job name: Job-2 Model name: Model-2
** Generated by: Abaqus/CAE 2023
*Preprint, echo=NO, model=NO, history=NO, contact=NO
**
** PARTS
**
*Part, name=Post_Tool_Pass_2
*End Part
**  
**
** ASSEMBLY
**
*Assembly, name=Assembly
**  
*Instance, name=Post_Tool_Pass_2, part=Post_Tool_Pass_2
*Node
      1, 3.95698692e-07,           0., -3.1045456e-08
      2,           0.,          10.,           0.
      3,          40., -4.43109478e-08, -4.73681041e-08
      4,          40.,          10.,           0.
      5,          40., -1.07944636e-07,   30.7692299
      6, 4.25932626e-07, 2.23686296e-08,   30.7692299
      7,           0.,          10.,          40.
      8,          40.,          10.,          40.
      9,          40.,           5.,          40.
     10,          40., -2.39914783e-07,   61.5384598
     11,          40., -3.77511213e-07,   276.923065
     12,          40., -3.5714325e-07,   307.692322
     13,          40., -2.86747394e-07,   338.461548
     14,          40., -4.13222864e-07,    123.07692
     15,          40.,          10.,         360.
     16,          40., -3.66982334e-07,   246.153839
     17,          40., -4.54164649e-07,   153.846161
     18,          40., -5.05651769e-07,   184.615387
     19,          40.,           9.,         185.
     20,          40.,          10.,          80.
** ... 62 like lines cut
*Element, type=C3D4
  1, 58, 57, 50, 81
  2, 58, 81, 50, 15
  3, 58, 15, 59, 82
  4, 67, 52, 12, 80
  5, 80, 52, 56, 51
  6, 80, 57, 13, 67
  7, 57, 80, 56, 51
  8, 56, 79, 52, 12
  9, 65, 66, 53, 79
 10, 56, 79, 55, 52
 11, 55, 65, 53, 79
 12, 78, 16, 54, 49
 13, 78, 49, 54, 53
 14, 78, 65, 53, 55
 15, 55, 54, 53, 78
 16, 79, 52, 12, 66
 17, 77, 64, 49, 16
 18, 26, 47, 24, 64
 19, 47, 24, 64, 77
 20, 77, 48, 49, 46
** ... 126 like lines cut
*Nset, nset=simple_set, generate
  1,  82,   1
*Elset, elset=simple_set, generate
   1,  146,    1
** Section: Section-1
*Solid Section, elset=simple_set, material=MATERIAL-1
0.,
*End Instance
**  
*Nset, nset=_PickedSet7, internal, instance=Post_Tool_Pass_2
 2, 4, 7, 8
*Elset, elset=_PickedSet7, internal, instance=Post_Tool_Pass_2
 129, 131
*Nset, nset=_PickedSet9, internal, instance=Post_Tool_Pass_2
 15, 29, 50, 59
*Elset, elset=_PickedSet9, internal, instance=Post_Tool_Pass_2
 143, 146
*End Assembly
** 
** MATERIALS
** 
*Material, name=MATERIAL-1
*Elastic
 1e+10, 0.3
** 
** BOUNDARY CONDITIONS
** 
** Name: Boundary_Condition_0 Type: Displacement/Rotation
*Boundary
_PickedSet7, 1, 1
_PickedSet7, 2, 2
_PickedSet7, 3, 3
_PickedSet7, 4, 4
_PickedSet7, 5, 5
_PickedSet7, 6, 6
** Name: Boundary_Condition_1 Type: Displacement/Rotation
*Boundary
_PickedSet9, 1, 1
_PickedSet9, 2, 2
_PickedSet9, 3, 3
_PickedSet9, 4, 4
_PickedSet9, 5, 5
_PickedSet9, 6, 6
** ----------------------------------------------------------------
** 
** STEP: Equilibrium2
** 
*Initial Conditions, Type=Stress
*External Field, File=Job-1.sim
 , , , , ,S, , 
*Step, name=Equilibrium2, nlgeom=NO
*Static
1., 1., 1e-05, 1.
** 
** OUTPUT REQUESTS
** 
*Restart, write, frequency=0
** 
** FIELD OUTPUT: F-Output-1
** 
*Output, field, variable=PRESELECT
** 
** HISTORY OUTPUT: H-Output-1
** 
*Output, history, variable=PRESELECT
*End Step
