*Heading
** Job name: Job-3 Model name: Model-3
** Generated by: Abaqus/CAE 2024
*Preprint, echo=NO, model=NO, history=NO, contact=NO
**
** PARTS
**
*Part, name=Initial_Geometry
*End Part
**  
**
** ASSEMBLY
**
*Assembly, name=Assembly
**  
*Instance, name=Initial_Geometry, part=Initial_Geometry
*Node
      1, 5.20000007e-08,           0.,         400.
      2,          40.,           0.,         400.
      3,          40.,          10.,         400.
      4,           0.,          10.,         400.
      5,          40.,           0.,           0.
      6,          40.,          10.,           0.
      7,          40.,          10.,          40.
      8,          40.,          10.,         360.
      9,           0.,          10.,         360.
     10, 5.20000007e-08,           0.,           0.
     11,           0.,          10.,           0.
     12,           0.,          10.,          40.
     13,           0.,          10.,   91.0466156
     14, 2.60000004e-08,           5.,   91.0466156
     15, 2.60000004e-08,           5.,   88.9765778
     16,           0.,          10.,   88.9765778
     17,   30.9474678,          10.,   149.680145
     18,    1.6221571,          10.,    91.318985
     19,   1.33056724,          10.,   91.1084824
     20,   30.9964809,          10.,   149.916183
** ... 465 like lines cut
*Element, type=C3D4
   1, 388, 389, 390, 391
   2, 388, 392, 391, 393
   3, 388, 389, 394, 395
   4, 388, 389, 395, 396
   5, 397, 398, 399, 400
   6, 397, 401, 402, 403
   7, 397, 404, 401, 405
   8, 406, 400, 407, 397
   9, 396, 389, 408, 409
  10, 344, 409, 323, 352
  11, 352, 410, 344, 409
  12, 409, 390,  86, 411
  13, 409, 412,  86, 361
  14, 409, 358, 413, 361
  15, 409, 414, 393, 411
  16, 415, 416,  59, 404
  17, 410, 352, 358, 409
  18, 416, 417, 418, 419
  19, 416,  59, 404,  68
  20, 420,  59,  68, 404
** ... 1520 like lines cut
*Nset, nset=entire_part, generate
   1,  485,    1
*Elset, elset=entire_part, generate
    1,  1540,     1
*Nset, nset=simple_set, generate
   1,  485,    1
*Elset, elset=simple_set, generate
    1,  1540,     1
** Section: Section-1
*Solid Section, elset=simple_set, material=Material-1
,
*End Instance
**  
*Nset, nset=_PickedSet8, internal, instance=Initial_Geometry
   6,   7,  11,  12,  99, 157, 171, 172, 368
*Elset, elset=_PickedSet8, internal, instance=Initial_Geometry
  880,  881,  882, 1177, 1314, 1471, 1473, 1481
*Nset, nset=_PickedSet14, internal, instance=Initial_Geometry
   3,   4,   8,   9,  98, 115, 135, 136, 173
*Elset, elset=_PickedSet14, internal, instance=Initial_Geometry
  404, 1206, 1235, 1482, 1489, 1495, 1496, 1497
*Elset, elset=_Surface_Traction_S4, internal, instance=Initial_Geometry
   62,  230,  453,  465,  564,  653,  656,  685,  713,  726,  802,  804,  809,  810,  958, 1067
 1382, 1449
*Elset, elset=_Surface_Traction_S1, internal, instance=Initial_Geometry
  139,  394,  671, 1015, 1056, 1290, 1379
*Elset, elset=_Surface_Traction_S3, internal, instance=Initial_Geometry
  145,  415,  480,  517,  554,  617,  622,  623,  624,  626,  646,  647,  664,  673,  703,  706
  716,  722,  723,  725,  747,  754,  765,  767,  788,  797,  808,  814,  823,  824,  830,  846
  866,  869, 1133, 1244
*Elset, elset=_Surface_Traction_S2, internal, instance=Initial_Geometry
  518,  585,  621,  642,  645,  714,  724,  736,  757,  760,  812,  816,  831,  832,  836,  894
 1329,
*Surface, type=ELEMENT, name=Surface_Traction
_Surface_Traction_S4, S4
_Surface_Traction_S1, S1
_Surface_Traction_S2, S2
_Surface_Traction_S3, S3
*End Assembly
** 
** MATERIALS
** 
*Material, name=Material-1
*Elastic
 1e+09, 0.3
** 
** BOUNDARY CONDITIONS
** 
** Name: Boundary_Condition_0 Type: Displacement/Rotation
*Boundary
_PickedSet8, 1, 1
_PickedSet8, 2, 2
_PickedSet8, 3, 3
_PickedSet8, 4, 4
_PickedSet8, 5, 5
_PickedSet8, 6, 6
** Name: Boundary_Condition_1 Type: Displacement/Rotation
*Boundary
_PickedSet14, 1, 1
_PickedSet14, 2, 2
_PickedSet14, 3, 3
_PickedSet14, 4, 4
_PickedSet14, 5, 5
_PickedSet14, 6, 6
** ----------------------------------------------------------------
** 
** STEP: Traction_Application
** 
*Step, name=Traction_Application, nlgeom=NO
*Static
1., 1., 1e-05, 1.
** 
** LOADS
** 
** Name: Surface_Traction   Type: Surface traction
*Dsload
Surface_Traction, TRVEC, 1., 0., 1., 0.
** 
** OUTPUT REQUESTS
** 
*Restart, write, frequency=0
** 
** FIELD OUTPUT: F-Output-1
** 
*Output, field, variable=PRESELECT
** 
** HISTORY OUTPUT: H-Output-1
** 
*Output, history, variable=PRESELECT
*End Step
